#    Name: 107
#    Modification time : Wed Aug  9 00:57:50 2017

@<TRIPOS>MOLECULE
107
   90     0    12     0     0
SMALL
NO_CHARGES


@<TRIPOS>ATOM
      1 N          53.4910   19.9420   27.5260 N.am      1 SEL1        0.0000 
      2 N          63.3700   15.9400   34.7740 N.am      1 SEL1        0.0000 
      3 N          63.2180   13.6150   35.4630 N.am      1 SEL1        0.0000 
      4 N          62.0860   11.8680   36.1130 N.am      1 SEL1        0.0000 
      5 O          53.5420   20.7200   29.6060 O.2       2 ALL2        0.0000 
      6 O          56.2460   18.6550   29.8470 O.2       2 ALL2        0.0000 
      7 O          61.0300   17.0200   33.6510 O.2       2 ALL2        0.0000 
      8 O          62.4050   15.9640   36.7500 O.2       2 ALL2        0.0000 
      9 O          65.2550   14.4340   38.0880 O.2       2 ALL2        0.0000 
     10 OD1        50.6270   20.7860   27.3410 O.co2     3 ASL4        0.0000 
     11 CA         49.2640   17.9490   30.9040 C.3       4 GLL5        0.0000 
     12 CA         55.3220   22.1740   30.3790 C.3       4 GLL5        0.0000 
     13 CA         56.8440   22.3870   30.4350 C.3       4 GLL5        0.0000 
     14 CA         54.6160   23.3480   29.5700 C.3       4 GLL5        0.0000 
     15 CA         54.9930   15.0110   28.0010 C.3       4 GLL5        0.0000 
     16 CA         54.0450   16.4010   29.7840 C.3       4 GLL5        0.0000 
     17 CA         61.8180   20.5250   36.0970 C.3       4 GLL5        0.0000 
     18 CA         60.8600   14.6650   34.2050 C.3       4 GLL5        0.0000 
     19 CA         60.7820   13.6230   35.2710 C.3       4 GLL5        0.0000 
     20 CA         60.8020   20.5050   35.1340 C.3       4 GLL5        0.0000 
     21 CA         60.0020   20.2520   32.7780 C.3       4 GLL5        0.0000 
     22 CA         62.4180   20.4610   33.4120 C.3       4 GLL5        0.0000 
     23 CA         68.9000   12.2030   37.0200 C.3       4 GLL5        0.0000 
     24 CA         63.1510   20.5060   35.7130 C.3       4 GLL5        0.0000 
     25 N          55.0690   21.7380   25.1020 N.am      5 SEP1        0.0000 
     26 N          65.4430   14.5950   32.8840 N.am      5 SEP1        0.0000 
     27 N          64.9030   11.6050   36.2950 N.am      5 SEP1        0.0000 
     28 O          52.0150   20.2920   32.3800 O.2       6 ALP2        0.0000 
     29 O          57.1860   18.5650   27.1830 O.2       6 ALP2        0.0000 
     30 O          63.1420   18.0680   31.6610 O.2       6 ALP2        0.0000 
     31 O          59.9530   16.2920   38.1240 O.2       6 ALP2        0.0000 
     32 O          67.3620   15.9710   36.1400 O.2       6 ALP2        0.0000 
     33 OD1        51.4010   20.0650   24.0970 O.co2     7 ASP4        0.0000 
     34 OD1        51.5090   24.4840   26.3220 O.co2     7 ASP4        0.0000 
     35 CA         45.8270   19.3780   33.2580 C.3       8 GLP5        0.0000 
     36 CA         47.6220   15.4680   33.9440 C.3       8 GLP5        0.0000 
     37 CA         54.3040   21.7820   34.5170 C.3       8 GLP5        0.0000 
     38 CA         56.3970   23.0910   34.7830 C.3       8 GLP5        0.0000 
     39 CA         56.3820   26.5450   31.0980 C.3       8 GLP5        0.0000 
     40 CA         60.0120   23.3630   31.7940 C.3       8 GLP5        0.0000 
     41 CA         52.5080   24.8310   33.2570 C.3       8 GLP5        0.0000 
     42 CA         55.7350   14.4730   24.1690 C.3       8 GLP5        0.0000 
     43 CA         52.3460   12.8980   27.7910 C.3       8 GLP5        0.0000 
     44 CA         51.6520   13.7190   32.0800 C.3       8 GLP5        0.0000 
     45 CA         59.6690   23.9060   38.1110 C.3       8 GLP5        0.0000 
     46 CA         62.7030   14.3760   30.9240 C.3       8 GLP5        0.0000 
     47 CA         58.7870   10.0970   33.3470 C.3       8 GLP5        0.0000 
     48 CA         59.4320   10.6040   37.6020 C.3       8 GLP5        0.0000 
     49 CA         57.2350   12.7820   29.9340 C.3       8 GLP5        0.0000 
     50 CA         57.9520   23.1490   35.0220 C.3       8 GLP5        0.0000 
     51 CA         64.3380   22.1560   31.3970 C.3       8 GLP5        0.0000 
     52 CA         57.1450   12.9260   35.0690 C.3       8 GLP5        0.0000 
     53 CA         67.2440   14.2120   34.6170 C.3       8 GLP5        0.0000 
     54 CA         57.9510   22.3320   26.9620 C.3       8 GLP5        0.0000 
     55 CA         62.9920   23.8250   35.6350 C.3       8 GLP5        0.0000 
     56 N          54.2800   20.8400   26.3140 N.am      9 SEC1        0.0000 
     57 N          64.4065   15.2675   33.8290 N.am      9 SEC1        0.0000 
     58 N          64.0605   12.6100   35.8790 N.am      9 SEC1        0.0000 
     59 N          63.4945   11.7365   36.2040 N.am      9 SEC1        0.0000 
     60 O          52.7785   20.5060   30.9930 O.2      10 ALC2        0.0000 
     61 O          56.7160   18.6100   28.5150 O.2      10 ALC2        0.0000 
     62 O          62.0860   17.5440   32.6560 O.2      10 ALC2        0.0000 
     63 O          61.1790   16.1280   37.4370 O.2      10 ALC2        0.0000 
     64 O          66.3085   15.2025   37.1140 O.2      10 ALC2        0.0000 
     65 OD1        51.0140   20.4255   25.7190 O.co2    11 ASC4        0.0000 
     66 OD1        51.0680   22.6350   26.8315 O.co2    11 ASC4        0.0000 
     67 CA         47.5455   18.6635   32.0810 C.3      12 GLC5        0.0000 
     68 CA         48.4430   16.7085   32.4240 C.3      12 GLC5        0.0000 
     69 CA         54.8130   21.9780   32.4480 C.3      12 GLC5        0.0000 
     70 CA         56.6205   22.7390   32.6090 C.3      12 GLC5        0.0000 
     71 CA         56.6130   24.4660   30.7665 C.3      12 GLC5        0.0000 
     72 CA         58.4280   22.8750   31.1145 C.3      12 GLC5        0.0000 
     73 CA         55.4990   24.9465   30.3340 C.3      12 GLC5        0.0000 
     74 CA         53.5620   24.0895   31.4135 C.3      12 GLC5        0.0000 
     75 CA         55.3640   14.7420   26.0850 C.3      12 GLC5        0.0000 
     76 CA         53.6695   13.9545   27.8960 C.3      12 GLC5        0.0000 
     77 CA         52.8485   15.0600   30.9320 C.3      12 GLC5        0.0000 
     78 CA         53.1955   14.6495   28.7875 C.3      12 GLC5        0.0000 
     79 CA         60.7435   22.2155   37.1040 C.3      12 GLC5        0.0000 
     80 CA         61.7815   14.5205   32.5645 C.3      12 GLC5        0.0000 
     81 CA         59.7845   11.8600   34.3090 C.3      12 GLC5        0.0000 
     82 CA         60.1070   12.1135   36.4365 C.3      12 GLC5        0.0000 
     83 CA         56.3351   14.2157   29.2602 C.3      12 GLC5        0.0000 
     84 CA         59.3141   21.7900   34.6159 C.3      12 GLC5        0.0000 
     85 CA         60.5776   21.9100   33.0177 C.3      12 GLC5        0.0000 
     86 CA         63.4729   21.3134   32.6889 C.3      12 GLC5        0.0000 
     87 CA         58.9830   13.5350   34.9035 C.3      12 GLC5        0.0000 
     88 CA         67.8965   13.1672   36.1520 C.3      12 GLC5        0.0000 
     89 CA         56.7385   22.4264   28.5764 C.3      12 GLC5        0.0000 
     90 CA         62.6411   22.1568   35.1685 C.3      12 GLC5        0.0000 
@<TRIPOS>BOND
@<TRIPOS>SUBSTRUCTURE
     1 SEL1        1 GROUP        1 Z    SEL  0     ROOT SEL Z 0
     2 ALL2        5 GROUP        1 Z    ALL  0     **** ALL Z 1
     3 ASL4       10 GROUP        1 Z    ASL  0     **** ASL Z 3
     4 GLL5       11 GROUP        1 Z    GLL  0     **** GLL Z 4
     5 SEP1       25 GROUP        1 Z    SEP  0     **** SEP Z 7
     6 ALP2       28 GROUP        1 Z    ALP  0     **** ALP Z 8
     7 ASP4       33 GROUP        1 Z    ASP  0     **** ASP Z 10
     8 GLP5       35 GROUP        1 Z    GLP  0     **** GLP Z 11
     9 SEC1       56 GROUP        1 Z    SEC  0     **** SEC Z 14
    10 ALC2       60 GROUP        1 Z    ALC  0     **** ALC Z 15
    11 ASC4       65 GROUP        1 Z    ASC  0     **** ASC Z 17
    12 GLC5       67 GROUP        1 Z    GLC  0     **** GLC Z 18
@<TRIPOS>SET

