1a8k_0Q4_1_ligand
  -OEChem-08111718373D

127127  0     1  0  0  0  0  0999 V2000
   63.8784   20.5109   36.3992 H   0  0  0  0  0  0  0  0  0  0  0  0
   64.4109   20.4748   34.0591 H   0  0  0  0  0  0  0  0  0  0  0  0
   61.5813   20.5532   37.0682 H   0  0  0  0  0  0  0  0  0  0  0  0
   62.6450   20.4464   32.4382 H   0  0  0  0  0  0  0  0  0  0  0  0
   59.8459   20.5223   35.4264 H   0  0  0  0  0  0  0  0  0  0  0  0
   58.8814   16.7877   30.8168 H   0  0  0  0  0  0  0  0  0  0  0  0
   68.7403   11.3907   36.4591 H   0  0  0  0  0  0  0  0  0  0  0  0
   68.5408   13.0089   36.5494 H   0  0  0  0  0  0  0  0  0  0  0  0
   69.8820   12.3156   37.1716 H   0  0  0  0  0  0  0  0  0  0  0  0
   64.9005   17.6025   38.1910 H   0  0  0  0  0  0  0  0  0  0  0  0
   63.9531   18.1145   36.9634 H   0  0  0  0  0  0  0  0  0  0  0  0
   63.2998   17.8192   38.4306 H   0  0  0  0  0  0  0  0  0  0  0  0
   54.0899   15.0267   27.5720 H   0  0  0  0  0  0  0  0  0  0  0  0
   55.6977   14.9663   27.2929 H   0  0  0  0  0  0  0  0  0  0  0  0
   55.0660   14.2098   28.5950 H   0  0  0  0  0  0  0  0  0  0  0  0
   53.1820   16.3774   29.2793 H   0  0  0  0  0  0  0  0  0  0  0  0
   54.0711   15.6427   30.4353 H   0  0  0  0  0  0  0  0  0  0  0  0
   54.1187   17.2674   30.2780 H   0  0  0  0  0  0  0  0  0  0  0  0
   57.0412   23.2758   30.8486 H   0  0  0  0  0  0  0  0  0  0  0  0
   57.2618   21.6635   30.9846 H   0  0  0  0  0  0  0  0  0  0  0  0
   57.2187   22.3601   29.5082 H   0  0  0  0  0  0  0  0  0  0  0  0
   54.8370   24.2257   29.9952 H   0  0  0  0  0  0  0  0  0  0  0  0
   54.9419   23.3442   28.6246 H   0  0  0  0  0  0  0  0  0  0  0  0
   53.6254   23.2120   29.5817 H   0  0  0  0  0  0  0  0  0  0  0  0
   59.1281   20.4831   33.2057 H   0  0  0  0  0  0  0  0  0  0  0  0
   60.1667   20.8640   32.0045 H   0  0  0  0  0  0  0  0  0  0  0  0
   60.1811   12.8903   34.9515 H   0  0  0  0  0  0  0  0  0  0  0  0
   60.3913   14.0407   36.0913 H   0  0  0  0  0  0  0  0  0  0  0  0
   67.2165   11.9283   38.2002 H   0  0  0  0  0  0  0  0  0  0  0  0
   68.5577   11.2350   38.8223 H   0  0  0  0  0  0  0  0  0  0  0  0
   61.6389   14.4586   33.6128 H   0  0  0  0  0  0  0  0  0  0  0  0
   60.0166   14.6368   33.6684 H   0  0  0  0  0  0  0  0  0  0  0  0
   68.9450   13.0236   40.0518 H   0  0  0  0  0  0  0  0  0  0  0  0
   68.9771   13.9574   38.7125 H   0  0  0  0  0  0  0  0  0  0  0  0
   48.7039   19.0613   29.2097 H   0  0  0  0  0  0  0  0  0  0  0  0
   49.4254   19.9728   30.3565 H   0  0  0  0  0  0  0  0  0  0  0  0
   66.9720   13.8025   40.6445 H   0  0  0  0  0  0  0  0  0  0  0  0
   67.1741   14.9477   39.4980 H   0  0  0  0  0  0  0  0  0  0  0  0
   51.5027   18.5973   29.7033 H   0  0  0  0  0  0  0  0  0  0  0  0
   50.6885   18.3970   28.3020 H   0  0  0  0  0  0  0  0  0  0  0  0
   56.6735   15.4554   30.0398 H   0  0  0  0  0  0  0  0  0  0  0  0
   57.2707   16.3381   28.8025 H   0  0  0  0  0  0  0  0  0  0  0  0
   48.6588   18.2833   31.6264 H   0  0  0  0  0  0  0  0  0  0  0  0
   50.1607   17.7363   31.2922 H   0  0  0  0  0  0  0  0  0  0  0  0
   56.2269   17.2756   31.2530 H   0  0  0  0  0  0  0  0  0  0  0  0
   60.6393   18.6320   31.5804 H   0  0  0  0  0  0  0  0  0  0  0  0
   66.3600   12.7981   38.2102 H   0  0  0  0  0  0  0  0  0  0  0  0
   55.3934   20.7920   28.8250 H   0  0  0  0  0  0  0  0  0  0  0  0
   64.3811   15.9232   36.6211 H   0  0  0  0  0  0  0  0  0  0  0  0
   60.2973   16.2300   35.3982 H   0  0  0  0  0  0  0  0  0  0  0  0
   51.1394   21.0227   29.2830 H   0  0  0  0  0  0  0  0  0  0  0  0
   55.1418   17.0545   28.2030 H   0  0  0  0  0  0  0  0  0  0  0  0
   54.9684   22.1787   31.3144 H   0  0  0  0  0  0  0  0  0  0  0  0
   65.1487   10.7410   40.7740 H   0  0  0  0  0  0  0  0  0  0  0  0
   66.6074   11.1393   39.9293 H   0  0  0  0  0  0  0  0  0  0  0  0
   51.1430   15.3575   28.7459 H   0  0  0  0  0  0  0  0  0  0  0  0
   51.1129   16.8630   29.6019 H   0  0  0  0  0  0  0  0  0  0  0  0
   49.2805   13.9958   28.7405 H   0  0  0  0  0  0  0  0  0  0  0  0
   47.8459   14.4694   29.5878 H   0  0  0  0  0  0  0  0  0  0  0  0
   56.3584   18.7899   28.8625 H   0  0  0  0  0  0  0  0  0  0  0  0
   61.8457   17.1383   33.0848 H   0  0  0  0  0  0  0  0  0  0  0  0
   65.6247   14.6161   37.1769 H   0  0  0  0  0  0  0  0  0  0  0  0
   61.5821   15.8235   37.3005 H   0  0  0  0  0  0  0  0  0  0  0  0
   52.9864   20.9777   30.3965 H   0  0  0  0  0  0  0  0  0  0  0  0
   49.7667   21.2222   27.6047 H   0  0  0  0  0  0  0  0  0  0  0  0
   50.4347   19.9876   26.7703 H   0  0  0  0  0  0  0  0  0  0  0  0
   63.1510   20.5060   35.7130 C   0  0  0  0  0  0  0  0  0  0  0  0
   63.4570   20.4800   34.3590 C   0  0  0  0  0  0  0  0  0  0  0  0
   61.8180   20.5250   36.0970 C   0  0  0  0  0  0  0  0  0  0  0  0
   62.4180   20.4610   33.4120 C   0  0  0  0  0  0  0  0  0  0  0  0
   60.8020   20.5050   35.1340 C   0  0  0  0  0  0  0  0  0  0  0  0
   61.0990   20.4620   33.7930 C   0  0  0  0  0  0  0  0  0  0  0  0
   58.2320   17.5330   30.9680 C   0  0  0  0  0  0  0  0  0  0  0  0
   59.9510   17.7540   33.4200 C   0  0  0  0  0  0  0  0  0  0  0  0
   65.1420   12.4360   39.7860 C   0  0  0  0  0  0  0  0  0  0  0  0
   55.5960   19.5840   30.5500 C   0  0  0  0  0  0  0  0  0  0  0  0
   64.1860   15.1560   38.4660 C   0  0  0  0  0  0  0  0  0  0  0  0
   62.3520   16.0450   35.4350 C   0  0  0  0  0  0  0  0  0  0  0  0
   52.9070   20.3260   28.5120 C   0  0  0  0  0  0  0  0  0  0  0  0
   62.1300   13.0120   35.6390 C   0  0  0  0  0  0  0  0  0  0  0  0
   49.3650   15.8100   29.6400 C   0  0  0  0  0  0  0  0  0  0  0  0
   68.9000   12.2030   37.0200 C   0  0  0  0  0  0  0  0  0  0  0  0
   63.9950   17.5290   37.7730 C   0  0  0  0  0  0  0  0  0  0  0  0
   54.9930   15.0110   28.0010 C   0  0  0  0  0  0  0  0  0  0  0  0
   54.0450   16.4010   29.7840 C   0  0  0  0  0  0  0  0  0  0  0  0
   56.8440   22.3870   30.4350 C   0  0  0  0  0  0  0  0  0  0  0  0
   54.6160   23.3480   29.5700 C   0  0  0  0  0  0  0  0  0  0  0  0
   60.0020   20.2520   32.7780 C   0  0  1  0  0  0  0  0  0  0  0  0
   60.7820   13.6230   35.2710 C   0  0  1  0  0  0  0  0  0  0  0  0
   68.1980   12.0420   38.3540 C   0  0  1  0  0  0  0  0  0  0  0  0
   60.8600   14.6650   34.2050 C   0  0  1  0  0  0  0  0  0  0  0  0
   68.4380   13.2960   39.2340 C   0  0  1  0  0  0  0  0  0  0  0  0
   49.4530   19.0990   29.8710 C   0  0  2  0  0  0  0  0  0  0  0  0
   67.1150   13.9640   39.6680 C   0  0  1  0  0  0  0  0  0  0  0  0
   50.8220   18.9980   29.0900 C   0  0  1  0  0  0  0  0  0  0  0  0
   56.5710   16.3010   29.5160 C   0  0  2  0  0  0  0  0  0  0  0  0
   49.2640   17.9490   30.9040 C   0  0  2  0  0  0  0  0  0  0  0  0
   56.7950   17.4600   30.4510 C   0  0  2  0  0  0  0  0  0  0  0  0
   59.9160   18.8120   32.2470 C   0  0  2  0  0  0  0  0  0  0  0  0
   65.9370   13.3950   38.8920 C   0  0  2  0  0  0  0  0  0  0  0  0
   54.9970   20.8060   29.7430 C   0  0  2  0  0  0  0  0  0  0  0  0
   63.7400   16.0910   37.3700 C   0  0  2  0  0  0  0  0  0  0  0  0
   61.0280   16.0250   34.7470 C   0  0  2  0  0  0  0  0  0  0  0  0
   51.3700   20.3520   28.5780 C   0  0  2  0  0  0  0  0  0  0  0  0
   55.1840   16.2750   28.8280 C   0  0  1  0  0  0  0  0  0  0  0  0
   55.3220   22.1740   30.3790 C   0  0  1  0  0  0  0  0  0  0  0  0
   58.5820   18.6490   31.6370 N   0  0  0  0  0  0  0  0  0  0  0  0
   65.6690   11.3650   40.1910 N   0  0  0  0  0  0  0  0  0  0  0  0
   50.6510   16.0290   29.3000 N   0  0  0  0  0  0  0  0  0  0  0  0
   48.7820   14.6630   29.2940 N   0  0  0  0  0  0  0  0  0  0  0  0
   56.2460   18.6550   29.8470 N   0  0  0  0  0  0  0  0  0  0  0  0
   61.0300   17.0200   33.6510 N   0  0  0  0  0  0  0  0  0  0  0  0
   65.2550   14.4340   38.0880 N   0  0  0  0  0  0  0  0  0  0  0  0
   62.4050   15.9640   36.7500 N   0  0  0  0  0  0  0  0  0  0  0  0
   53.5420   20.7200   29.6060 N   0  0  0  0  0  0  0  0  0  0  0  0
   48.6910   16.6960   30.3800 N   0  3  0  0  0  0  0  0  0  0  0  0
   50.6270   20.7860   27.3410 N   0  3  0  0  0  0  0  0  0  0  0  0
   62.0860   11.8680   36.1130 O   0  5  0  0  0  0  0  0  0  0  0  0
   58.9220   17.5490   34.0750 O   0  0  0  0  0  0  0  0  0  0  0  0
   63.9750   12.7540   40.0700 O   0  0  0  0  0  0  0  0  0  0  0  0
   55.4890   19.5010   31.7810 O   0  0  0  0  0  0  0  0  0  0  0  0
   63.6420   15.1700   39.6330 O   0  0  0  0  0  0  0  0  0  0  0  0
   63.3700   15.9400   34.7740 O   0  0  0  0  0  0  0  0  0  0  0  0
   53.4910   19.9420   27.5260 O   0  0  0  0  0  0  0  0  0  0  0  0
   63.2180   13.6150   35.4630 O   0  0  0  0  0  0  0  0  0  0  0  0
   47.7346   16.4955   30.5922 H   0  0  0  0  0  0  0  0  0  0  0  0
   51.1865   21.4362   26.8270 H   0  0  0  0  0  0  0  0  0  0  0  0
  1 67  1  0  0  0  0
  2 68  1  0  0  0  0
  3 69  1  0  0  0  0
  4 70  1  0  0  0  0
  5 71  1  0  0  0  0
  6 73  1  0  0  0  0
  7 82  1  0  0  0  0
  8 82  1  0  0  0  0
  9 82  1  0  0  0  0
 10 83  1  0  0  0  0
 11 83  1  0  0  0  0
 12 83  1  0  0  0  0
 13 84  1  0  0  0  0
 14 84  1  0  0  0  0
 15 84  1  0  0  0  0
 16 85  1  0  0  0  0
 17 85  1  0  0  0  0
 18 85  1  0  0  0  0
 19 86  1  0  0  0  0
 20 86  1  0  0  0  0
 21 86  1  0  0  0  0
 22 87  1  0  0  0  0
 23 87  1  0  0  0  0
 24 87  1  0  0  0  0
 25 88  1  0  0  0  0
 26 88  1  0  0  0  0
 27 89  1  0  0  0  0
 28 89  1  0  0  0  0
 29 90  1  0  0  0  0
 30 90  1  0  0  0  0
 31 91  1  0  0  0  0
 32 91  1  0  0  0  0
 33 92  1  0  0  0  0
 34 92  1  0  0  0  0
 35 93  1  0  0  0  0
 36 93  1  0  0  0  0
 37 94  1  0  0  0  0
 38 94  1  0  0  0  0
 39 95  1  0  0  0  0
 40 95  1  0  0  0  0
 41 96  1  0  0  0  0
 42 96  1  0  0  0  0
 43 97  1  0  0  0  0
 44 97  1  0  0  0  0
 45 98  1  0  0  0  0
 46 99  1  0  0  0  0
 47100  1  0  0  0  0
 48101  1  0  0  0  0
 49102  1  0  0  0  0
 50103  1  0  0  0  0
 51104  1  0  0  0  0
 52105  1  0  0  0  0
 53106  1  0  0  0  0
 54108  1  0  0  0  0
 55108  1  0  0  0  0
 56109  1  0  0  0  0
 57109  1  0  0  0  0
 58110  1  0  0  0  0
 59110  1  0  0  0  0
 60111  1  0  0  0  0
 61112  1  0  0  0  0
 62113  1  0  0  0  0
 63114  1  0  0  0  0
 64115  1  0  0  0  0
 65117  1  0  0  0  0
 66117  1  0  0  0  0
 67 68  2  0  0  0  0
 67 69  1  0  0  0  0
 68 70  1  0  0  0  0
 69 71  2  0  0  0  0
 70 72  2  0  0  0  0
 71 72  1  0  0  0  0
 72 88  1  0  0  0  0
 73 98  1  0  0  0  0
 73107  2  0  0  0  0
 74 99  1  0  0  0  0
 74112  1  0  0  0  0
 74119  2  0  0  0  0
 75100  1  0  0  0  0
 75108  1  0  0  0  0
 75120  2  0  0  0  0
 76101  1  0  0  0  0
 76111  1  0  0  0  0
 76121  2  0  0  0  0
 77102  1  0  0  0  0
 77113  1  0  0  0  0
 77122  2  0  0  0  0
 78103  1  0  0  0  0
 78114  1  0  0  0  0
 78123  2  0  0  0  0
 79104  1  0  0  0  0
 79115  1  0  0  0  0
 79124  2  0  0  0  0
 80 89  1  0  0  0  0
 80118  1  0  0  0  0
 80125  2  0  0  0  0
 81109  1  0  0  0  0
 81110  1  0  0  0  0
 81116  2  0  0  0  0
 82 90  1  0  0  0  0
 83102  1  0  0  0  0
 84105  1  0  0  0  0
 85105  1  0  0  0  0
 86106  1  0  0  0  0
 87106  1  0  0  0  0
 88 99  1  0  0  0  0
 89 91  1  0  0  0  0
 90 92  1  0  0  0  0
 91103  1  0  0  0  0
 92 94  1  0  0  0  0
 93 95  1  0  0  0  0
 93 97  1  0  0  0  0
 94100  1  0  0  0  0
 95104  1  0  0  0  0
 96 98  1  0  0  0  0
 96105  1  0  0  0  0
 97116  1  0  0  0  0
 98111  1  0  0  0  0
 99107  1  0  0  0  0
100113  1  0  0  0  0
101106  1  0  0  0  0
101115  1  0  0  0  0
102114  1  0  0  0  0
103112  1  0  0  0  0
104117  1  0  0  0  0
116126  1  0  0  0  0
117127  1  0  0  0  0
M  CHG  3 117   1 116   1 118  -1
M  END
> <scpdb_id>
1a8k_1

$$$$
