@<TRIPOS>MOLECULE
1a8k_0Q4_1_ligand
  127   127     1     0     0
SMALL
NO_CHARGES


@<TRIPOS>ATOM
     1 N           50.6270    20.7860    27.3410 N.4          1 0Q4100   1.0000
     2 CA          51.3700    20.3520    28.5780 C.3          1 0Q4100   0.0000
     3 C           52.9070    20.3260    28.5120 C.2          1 0Q4100   0.0000
     4 O           53.4910    19.9420    27.5260 O.2          1 0Q4100   0.0000
     5 CB          50.8220    18.9980    29.0900 C.3          1 0Q4100   0.0000
     6 CG          49.4530    19.0990    29.8710 C.3          1 0Q4100   0.0000
     7 CD          49.2640    17.9490    30.9040 C.3          1 0Q4100   0.0000
     8 NE          48.6910    16.6960    30.3800 N.pl3        1 0Q4100   1.0000
     9 CZ          49.3650    15.8100    29.6400 C.cat        1 0Q4100   0.0000
    10 NH1         50.6510    16.0290    29.3000 N.pl3        1 0Q4100   0.0000
    11 NH2         48.7820    14.6630    29.2940 N.pl3        1 0Q4100   0.0000
    12 N1          53.5420    20.7200    29.6060 N.am         1 0Q4100   0.0000
    13 CA1         54.9970    20.8060    29.7430 C.3          1 0Q4100   0.0000
    14 C1          55.5960    19.5840    30.5500 C.2          1 0Q4100   0.0000
    15 O1          55.4890    19.5010    31.7810 O.2          1 0Q4100   0.0000
    16 CB1         55.3220    22.1740    30.3790 C.3          1 0Q4100   0.0000
    17 CG1         56.8440    22.3870    30.4350 C.3          1 0Q4100   0.0000
    18 CG2         54.6160    23.3480    29.5700 C.3          1 0Q4100   0.0000
    19 N2          56.2460    18.6550    29.8470 N.am         1 0Q4100   0.0000
    20 CA2         56.7950    17.4600    30.4510 C.3          1 0Q4100   0.0000
    21 C2          58.2320    17.5330    30.9680 C.2          1 0Q4100   0.0000
    22 CB2         56.5710    16.3010    29.5160 C.3          1 0Q4100   0.0000
    23 CG3         55.1840    16.2750    28.8280 C.3          1 0Q4100   0.0000
    24 CD1         54.9930    15.0110    28.0010 C.3          1 0Q4100   0.0000
    25 CD2         54.0450    16.4010    29.7840 C.3          1 0Q4100   0.0000
    26 N3          58.5820    18.6490    31.6370 N.2          1 0Q4100   0.0000
    27 CA3         59.9160    18.8120    32.2470 C.3          1 0Q4100   0.0000
    28 C3          59.9510    17.7540    33.4200 C.2          1 0Q4100   0.0000
    29 O2          58.9220    17.5490    34.0750 O.2          1 0Q4100   0.0000
    30 CB3         60.0020    20.2520    32.7780 C.3          1 0Q4100   0.0000
    31 CG4         61.0990    20.4620    33.7930 C.ar         1 0Q4100   0.0000
    32 CD11        62.4180    20.4610    33.4120 C.ar         1 0Q4100   0.0000
    33 CD21        60.8020    20.5050    35.1340 C.ar         1 0Q4100   0.0000
    34 CE1         63.4570    20.4800    34.3590 C.ar         1 0Q4100   0.0000
    35 CE2         61.8180    20.5250    36.0970 C.ar         1 0Q4100   0.0000
    36 CZ1         63.1510    20.5060    35.7130 C.ar         1 0Q4100   0.0000
    37 N4          61.0300    17.0200    33.6510 N.am         1 0Q4100   0.0000
    38 CA4         61.0280    16.0250    34.7470 C.3          1 0Q4100   0.0000
    39 C4          62.3520    16.0450    35.4350 C.2          1 0Q4100   0.0000
    40 O3          63.3700    15.9400    34.7740 O.2          1 0Q4100   0.0000
    41 CB4         60.8600    14.6650    34.2050 C.3          1 0Q4100   0.0000
    42 CG5         60.7820    13.6230    35.2710 C.3          1 0Q4100   0.0000
    43 CD3         62.1300    13.0120    35.6390 C.2          1 0Q4100   0.0000
    44 OE1         63.2180    13.6150    35.4630 O.co2        1 0Q4100   0.0000
    45 OE2         62.0860    11.8680    36.1130 O.co2        1 0Q4100  -1.0000
    46 N5          62.4050    15.9640    36.7500 N.am         1 0Q4100   0.0000
    47 CA5         63.7400    16.0910    37.3700 C.3          1 0Q4100   0.0000
    48 C5          64.1860    15.1560    38.4660 C.2          1 0Q4100   0.0000
    49 O4          63.6420    15.1700    39.6330 O.2          1 0Q4100   0.0000
    50 CB5         63.9950    17.5290    37.7730 C.3          1 0Q4100   0.0000
    51 N6          65.2550    14.4340    38.0880 N.am         1 0Q4100   0.0000
    52 CA6         65.9370    13.3950    38.8920 C.3          1 0Q4100   0.0000
    53 C6          65.1420    12.4360    39.7860 C.2          1 0Q4100   0.0000
    54 O5          63.9750    12.7540    40.0700 O.2          1 0Q4100   0.0000
    55 CB6         67.1150    13.9640    39.6680 C.3          1 0Q4100   0.0000
    56 CG6         68.4380    13.2960    39.2340 C.3          1 0Q4100   0.0000
    57 CD4         68.1980    12.0420    38.3540 C.3          1 0Q4100   0.0000
    58 CE          68.9000    12.2030    37.0200 C.3          1 0Q4100   0.0000
    59 N7          65.6690    11.3650    40.1910 N.am         1 0Q4100   0.0000
    60 H1          50.4348    19.9876    26.7703 H            1 0Q4100   0.0000
    61 H2          49.7667    21.2222    27.6047 H            1 0Q4100   0.0000
    62 HA          51.1394    21.0227    29.2830 H            1 0Q4100   0.0000
    63 HB1         51.5027    18.5973    29.7033 H            1 0Q4100   0.0000
    64 HB2         50.6885    18.3970    28.3020 H            1 0Q4100   0.0000
    65 HG1         48.7039    19.0613    29.2097 H            1 0Q4100   0.0000
    66 HG2         49.4254    19.9728    30.3565 H            1 0Q4100   0.0000
    67 HD1         48.6588    18.2833    31.6264 H            1 0Q4100   0.0000
    68 HD2         50.1607    17.7363    31.2922 H            1 0Q4100   0.0000
    69 HE          47.7346    16.4955    30.5922 H            1 0Q4100   0.0000
    70 HH11        51.1430    15.3575    28.7459 H            1 0Q4100   0.0000
    71 HH12        51.1129    16.8630    29.6019 H            1 0Q4100   0.0000
    72 HH21        49.2805    13.9958    28.7405 H            1 0Q4100   0.0000
    73 H14         52.9864    20.9777    30.3965 H            1 0Q4100   0.0000
    74 HA1         55.3934    20.7920    28.8250 H            1 0Q4100   0.0000
    75 H16         54.9684    22.1787    31.3144 H            1 0Q4100   0.0000
    76 HG11        57.0412    23.2758    30.8486 H            1 0Q4100   0.0000
    77 HG12        57.2618    21.6635    30.9846 H            1 0Q4100   0.0000
    78 HG13        57.2187    22.3601    29.5082 H            1 0Q4100   0.0000
    79 HG21        54.8370    24.2257    29.9952 H            1 0Q4100   0.0000
    80 HG22        54.9419    23.3442    28.6246 H            1 0Q4100   0.0000
    81 HG23        53.6254    23.2120    29.5817 H            1 0Q4100   0.0000
    82 H23         56.3584    18.7899    28.8625 H            1 0Q4100   0.0000
    83 HA2         56.2269    17.2756    31.2530 H            1 0Q4100   0.0000
    84 H25         58.8814    16.7877    30.8168 H            1 0Q4100   0.0000
    85 HB21        56.6735    15.4554    30.0398 H            1 0Q4100   0.0000
    86 HB22        57.2707    16.3381    28.8025 H            1 0Q4100   0.0000
    87 HG3         55.1418    17.0545    28.2030 H            1 0Q4100   0.0000
    88 HD11        54.0899    15.0267    27.5720 H            1 0Q4100   0.0000
    89 HD12        55.6977    14.9663    27.2929 H            1 0Q4100   0.0000
    90 HD13        55.0660    14.2098    28.5950 H            1 0Q4100   0.0000
    91 HD21        53.1820    16.3774    29.2793 H            1 0Q4100   0.0000
    92 HD22        54.0711    15.6427    30.4353 H            1 0Q4100   0.0000
    93 HD23        54.1187    17.2674    30.2780 H            1 0Q4100   0.0000
    94 HA3         60.6393    18.6320    31.5804 H            1 0Q4100   0.0000
    95 HB31        59.1281    20.4831    33.2057 H            1 0Q4100   0.0000
    96 HB32        60.1667    20.8640    32.0045 H            1 0Q4100   0.0000
    97 H38         62.6450    20.4464    32.4382 H            1 0Q4100   0.0000
    98 H39         59.8459    20.5223    35.4264 H            1 0Q4100   0.0000
    99 HE1         64.4109    20.4748    34.0591 H            1 0Q4100   0.0000
   100 HE2         61.5813    20.5532    37.0682 H            1 0Q4100   0.0000
   101 HZ1         63.8784    20.5109    36.3992 H            1 0Q4100   0.0000
   102 H43         61.8457    17.1383    33.0848 H            1 0Q4100   0.0000
   103 HA4         60.2973    16.2300    35.3982 H            1 0Q4100   0.0000
   104 HB41        61.6389    14.4586    33.6128 H            1 0Q4100   0.0000
   105 HB42        60.0166    14.6368    33.6684 H            1 0Q4100   0.0000
   106 HG51        60.1811    12.8903    34.9515 H            1 0Q4100   0.0000
   107 HG52        60.3913    14.0407    36.0913 H            1 0Q4100   0.0000
   108 H49         61.5821    15.8235    37.3005 H            1 0Q4100   0.0000
   109 HA5         64.3811    15.9232    36.6211 H            1 0Q4100   0.0000
   110 HB51        64.9005    17.6025    38.1910 H            1 0Q4100   0.0000
   111 HB52        63.9531    18.1145    36.9634 H            1 0Q4100   0.0000
   112 HB53        63.2998    17.8192    38.4306 H            1 0Q4100   0.0000
   113 H54         65.6247    14.6161    37.1769 H            1 0Q4100   0.0000
   114 HA6         66.3600    12.7981    38.2102 H            1 0Q4100   0.0000
   115 HB61        66.9720    13.8025    40.6445 H            1 0Q4100   0.0000
   116 HB62        67.1741    14.9477    39.4980 H            1 0Q4100   0.0000
   117 HG61        68.9450    13.0236    40.0518 H            1 0Q4100   0.0000
   118 HG62        68.9771    13.9574    38.7125 H            1 0Q4100   0.0000
   119 HD41        67.2165    11.9283    38.2002 H            1 0Q4100   0.0000
   120 HD42        68.5577    11.2350    38.8223 H            1 0Q4100   0.0000
   121 H62         68.7403    11.3907    36.4591 H            1 0Q4100   0.0000
   122 H63         68.5408    13.0089    36.5494 H            1 0Q4100   0.0000
   123 HE3         69.8820    12.3156    37.1716 H            1 0Q4100   0.0000
   124 H65         65.1487    10.7410    40.7740 H            1 0Q4100   0.0000
   125 H66         66.6074    11.1393    39.9293 H            1 0Q4100   0.0000
   126 H67         51.1865    21.4362    26.8270 H            1 0Q4100   0.0000
   127 HH22        47.8459    14.4694    29.5878 H            1 0Q4100   0.0000
@<TRIPOS>BOND
     1    1    2       1
     2    2    3       1
     3    2    5       1
     4    3    4       2
     5    3   12      am
     6    5    6       1
     7    6    7       1
     8    7    8       1
     9    8    9      ar
    10    9   10      ar
    11    9   11      ar
    12   12   13       1
    13   13   14       1
    14   13   16       1
    15   14   15       2
    16   14   19      am
    17   16   17       1
    18   16   18       1
    19   19   20       1
    20   20   21       1
    21   20   22       1
    22   21   26       2
    23   22   23       1
    24   23   24       1
    25   23   25       1
    26   26   27       1
    27   27   28       1
    28   27   30       1
    29   28   29       2
    30   28   37      am
    31   30   31       1
    32   31   32      ar
    33   31   33      ar
    34   32   34      ar
    35   33   35      ar
    36   34   36      ar
    37   35   36      ar
    38   37   38       1
    39   38   39       1
    40   38   41       1
    41   39   40       2
    42   39   46      am
    43   41   42       1
    44   42   43       1
    45   43   44      ar
    46   43   45      ar
    47   46   47       1
    48   47   48       1
    49   47   50       1
    50   48   49       2
    51   48   51      am
    52   51   52       1
    53   52   53       1
    54   52   55       1
    55   53   54       2
    56   53   59      am
    57   55   56       1
    58   56   57       1
    59   57   58       1
    60    1   60       1
    61    1   61       1
    62    2   62       1
    63    5   63       1
    64    5   64       1
    65    6   65       1
    66    6   66       1
    67    7   67       1
    68    7   68       1
    69    8   69       1
    70   10   70       1
    71   10   71       1
    72   11   72       1
    73   12   73       1
    74   13   74       1
    75   16   75       1
    76   17   76       1
    77   17   77       1
    78   17   78       1
    79   18   79       1
    80   18   80       1
    81   18   81       1
    82   19   82       1
    83   20   83       1
    84   21   84       1
    85   22   85       1
    86   22   86       1
    87   23   87       1
    88   24   88       1
    89   24   89       1
    90   24   90       1
    91   25   91       1
    92   25   92       1
    93   25   93       1
    94   27   94       1
    95   30   95       1
    96   30   96       1
    97   32   97       1
    98   33   98       1
    99   34   99       1
   100   35  100       1
   101   36  101       1
   102   37  102       1
   103   38  103       1
   104   41  104       1
   105   41  105       1
   106   42  106       1
   107   42  107       1
   108   11  127       1
   109   46  108       1
   110   47  109       1
   111   50  110       1
   112   50  111       1
   113   50  112       1
   114   51  113       1
   115   52  114       1
   116   55  115       1
   117   55  116       1
   118   56  117       1
   119   56  118       1
   120   57  119       1
   121   57  120       1
   122   58  121       1
   123   58  122       1
   124   58  123       1
   125   59  124       1
   126   59  125       1
   127    1  126       1
@<TRIPOS>SUBSTRUCTURE
     1 0Q4100      1 GROUP             4 A     0Q4     0 **** 0Q4 A 100
