1a4r_GNH_1_ligand
  -OEChem-08111718373D

 42 44  0     1  0  0  0  0  0999 V2000
  102.7676   31.5970   -1.1004 H   0  0  0  0  0  0  0  0  0  0  0  0
  106.1920   29.2518   -0.1373 H   0  0  0  0  0  0  0  0  0  0  0  0
  104.8178   30.9587    0.1577 H   0  0  0  0  0  0  0  0  0  0  0  0
  106.7797   29.6928   -2.6819 H   0  0  0  0  0  0  0  0  0  0  0  0
  106.3847   32.7232   -1.4685 H   0  0  0  0  0  0  0  0  0  0  0  0
  104.5609   28.9412   -3.3155 H   0  0  0  0  0  0  0  0  0  0  0  0
  105.2402   27.9334   -2.2248 H   0  0  0  0  0  0  0  0  0  0  0  0
  103.2047   37.8264   -2.7673 H   0  0  0  0  0  0  0  0  0  0  0  0
  106.7115   37.3120   -2.7457 H   0  0  0  0  0  0  0  0  0  0  0  0
  105.4200   38.4374   -3.0012 H   0  0  0  0  0  0  0  0  0  0  0  0
  103.2410   24.7923   -2.2579 H   0  0  0  0  0  0  0  0  0  0  0  0
  102.0253   23.9864   -2.9922 H   0  0  0  0  0  0  0  0  0  0  0  0
  108.1557   30.2982    0.3594 H   0  0  0  0  0  0  0  0  0  0  0  0
  106.5211   32.8409    0.8489 H   0  0  0  0  0  0  0  0  0  0  0  0
  103.0000   32.5360   -1.3540 C   0  0  0  0  0  0  0  0  0  0  0  0
  102.8070   34.5960   -1.8890 C   0  0  0  0  0  0  0  0  0  0  0  0
  104.2050   34.3230   -1.8660 C   0  0  0  0  0  0  0  0  0  0  0  0
  102.3660   35.9710   -2.2360 C   0  0  0  0  0  0  0  0  0  0  0  0
  104.8390   36.5560   -2.4810 C   0  0  0  0  0  0  0  0  0  0  0  0
  106.4630   30.0620   -0.6570 C   0  0  1  0  0  0  0  0  0  0  0  0
  105.7350   31.2660   -0.0960 C   0  0  2  0  0  0  0  0  0  0  0  0
  105.9930   29.8990   -2.1000 C   0  0  1  0  0  0  0  0  0  0  0  0
  105.5820   32.1390   -1.3490 C   0  0  2  0  0  0  0  0  0  0  0  0
  104.8640   28.8490   -2.3670 C   0  0  1  0  0  0  0  0  0  0  0  0
  105.2800   35.2710   -2.1570 N   0  0  0  0  0  0  0  0  0  0  0  0
  103.4480   36.8880   -2.5220 N   0  0  0  0  0  0  0  0  0  0  0  0
  104.3150   32.9430   -1.5100 N   0  0  0  0  0  0  0  0  0  0  0  0
  102.0730   33.4460   -1.5560 N   0  0  0  0  0  0  0  0  0  0  0  0
  105.7330   37.5170   -2.7670 N   0  0  0  0  0  0  0  0  0  0  0  0
  102.4860   24.8700   -2.9090 N   0  0  1  0  0  0  0  0  0  0  0  0
  100.3500   26.2500   -3.2730 O   0  5  0  0  0  0  0  0  0  0  0  0
  101.8500   28.3180    0.0570 O   0  5  0  0  0  0  0  0  0  0  0  0
  101.2060   36.3850   -2.3060 O   0  0  0  0  0  0  0  0  0  0  0  0
  100.9830   25.4700   -1.0790 O   0  0  0  0  0  0  0  0  0  0  0  0
  103.9320   26.8730   -0.1570 O   0  0  0  0  0  0  0  0  0  0  0  0
  105.4820   31.1830   -2.4390 O   0  0  0  0  0  0  0  0  0  0  0  0
  107.8730   30.1930   -0.5940 O   0  0  0  0  0  0  0  0  0  0  0  0
  106.2980   31.8890    1.0590 O   0  0  0  0  0  0  0  0  0  0  0  0
  103.7180   29.0170   -1.4980 O   0  0  0  0  0  0  0  0  0  0  0  0
  102.4090   27.1490   -2.1360 O   0  0  0  0  0  0  0  0  0  0  0  0
  101.5220   25.8860   -2.4280 P   0  0  1  0  0  0  0  0  0  0  0  0
  102.9800   27.8190   -0.7750 P   0  0  2  0  0  0  0  0  0  0  0  0
  1 15  1  0  0  0  0
  2 20  1  0  0  0  0
  3 21  1  0  0  0  0
  4 22  1  0  0  0  0
  5 23  1  0  0  0  0
  6 24  1  0  0  0  0
  7 24  1  0  0  0  0
  8 26  1  0  0  0  0
  9 29  1  0  0  0  0
 10 29  1  0  0  0  0
 11 30  1  0  0  0  0
 12 30  1  0  0  0  0
 13 37  1  0  0  0  0
 14 38  1  0  0  0  0
 15 27  1  0  0  0  0
 15 28  2  0  0  0  0
 16 17  2  0  0  0  0
 16 18  1  0  0  0  0
 16 28  1  0  0  0  0
 17 25  1  0  0  0  0
 17 27  1  0  0  0  0
 18 26  1  0  0  0  0
 18 33  2  0  0  0  0
 19 25  2  0  0  0  0
 19 26  1  0  0  0  0
 19 29  1  0  0  0  0
 20 21  1  0  0  0  0
 20 22  1  0  0  0  0
 20 37  1  0  0  0  0
 21 23  1  0  0  0  0
 21 38  1  0  0  0  0
 22 24  1  0  0  0  0
 22 36  1  0  0  0  0
 23 27  1  0  0  0  0
 23 36  1  0  0  0  0
 24 39  1  0  0  0  0
 30 41  1  0  0  0  0
 31 41  1  0  0  0  0
 32 42  1  0  0  0  0
 34 41  2  0  0  0  0
 35 42  2  0  0  0  0
 39 42  1  0  0  0  0
 40 41  1  0  0  0  0
 40 42  1  0  0  0  0
M  CHG  2  31  -1  32  -1
M  END
> <scpdb_id>
1a4r_1

$$$$
