@<TRIPOS>MOLECULE
1a2b_GSP_1_ligand
   44    46     1     0     0
SMALL
NO_CHARGES


@<TRIPOS>ATOM
     1 PG           8.4140    29.9140    26.7600 P.3          1 GSP538   0.0000
     2 O3B          9.7490    29.0980    27.4300 O.3          1 GSP538   0.0000
     3 S1G          7.3590    30.3480    28.2900 S.2          1 GSP538   0.0000
     4 O2G          8.9680    31.1250    26.0820 O.co2        1 GSP538  -1.0000
     5 O3G          7.8360    28.8930    25.8210 O.co2        1 GSP538  -1.0000
     6 PB          11.1620    28.6580    26.8020 P.3          1 GSP538   0.0000
     7 O1B         11.0350    27.2470    26.4810 O.co2        1 GSP538   0.0000
     8 O2B         11.6020    29.5360    25.6480 O.co2        1 GSP538  -1.0000
     9 PA          13.4950    29.7620    28.2830 P.3          1 GSP538   0.0000
    10 O1A         14.4040    29.5200    27.1490 O.co2        1 GSP538   0.0000
    11 O2A         12.9870    31.1530    28.4690 O.co2        1 GSP538  -1.0000
    12 O3A         12.2440    28.7330    28.0130 O.3          1 GSP538   0.0000
    13 O5'         14.1500    29.2130    29.6710 O.3          1 GSP538   0.0000
    14 C5'         13.4480    28.5810    30.7250 C.3          1 GSP538   0.0000
    15 C4'         14.2160    28.6240    32.0160 C.3          1 GSP538   0.0000
    16 O4'         15.2880    27.6270    32.0370 O.3          1 GSP538   0.0000
    17 C3'         14.9130    29.9750    32.1750 C.3          1 GSP538   0.0000
    18 O3'         14.9600    30.3820    33.5500 O.3          1 GSP538   0.0000
    19 C2'         16.3490    29.7310    31.6550 C.3          1 GSP538   0.0000
    20 O2'         17.3160    30.5890    32.2230 O.3          1 GSP538   0.0000
    21 C1'         16.6170    28.2580    32.0380 C.3          1 GSP538   0.0000
    22 N9          17.4600    27.5600    31.0280 N.pl3        1 GSP538   0.0000
    23 C8          17.4870    27.6970    29.6450 C.2          1 GSP538   0.0000
    24 N7          18.3290    26.9340    29.0420 N.2          1 GSP538   0.0000
    25 C5          18.9230    26.2250    30.0890 C.2          1 GSP538   0.0000
    26 C6          19.9620    25.1890    30.0600 C.2          1 GSP538   0.0000
    27 O6          20.5610    24.6970    29.0910 O.2          1 GSP538   0.0000
    28 N1          20.2690    24.7350    31.3480 N.pl3        1 GSP538   0.0000
    29 C2          19.6730    25.2040    32.5010 C.2          1 GSP538   0.0000
    30 N2          20.0480    24.7040    33.6630 N.pl3        1 GSP538   0.0000
    31 N3          18.7180    26.1520    32.5220 N.2          1 GSP538   0.0000
    32 C4          18.3940    26.6100    31.2890 C.2          1 GSP538   0.0000
    33 H5'1        13.2850    27.6259    30.4776 H            1 GSP538   0.0000
    34 H5'2        12.5722    29.0460    30.8544 H            1 GSP538   0.0000
    35 H4'         13.5953    28.4704    32.7848 H            1 GSP538   0.0000
    36 H3'         14.4553    30.6705    31.6212 H            1 GSP538   0.0000
    37 H5          15.4207    31.2668    33.6202 H            1 GSP538   0.0000
    38 H2'         16.3636    29.8247    30.6595 H            1 GSP538   0.0000
    39 H7          18.1984    30.1199    32.2580 H            1 GSP538   0.0000
    40 H1'         17.0337    28.2001    32.9452 H            1 GSP538   0.0000
    41 H9          16.8970    28.3396    29.1562 H            1 GSP538   0.0000
    42 H10         20.9662    24.0239    31.4387 H            1 GSP538   0.0000
    43 H11         19.6264    25.0326    34.5082 H            1 GSP538   0.0000
    44 H12         20.7538    23.9965    33.6985 H            1 GSP538   0.0000
@<TRIPOS>BOND
     1    1    2       1
     2    1    3       2
     3    1    4      ar
     4    1    5      ar
     5    2    6       1
     6    6    7      ar
     7    6    8      ar
     8    6   12       1
     9    9   10      ar
    10    9   11      ar
    11    9   12       1
    12    9   13       1
    13   13   14       1
    14   14   15       1
    15   15   16       1
    16   15   17       1
    17   16   21       1
    18   17   18       1
    19   17   19       1
    20   19   20       1
    21   19   21       1
    22   21   22       1
    23   22   23       1
    24   22   32       1
    25   23   24       2
    26   24   25       1
    27   25   26       1
    28   25   32       2
    29   26   27       2
    30   26   28       1
    31   28   29       1
    32   29   30       1
    33   29   31       2
    34   31   32       1
    35   30   44       1
    36   30   43       1
    37   28   42       1
    38   23   41       1
    39   14   33       1
    40   14   34       1
    41   15   35       1
    42   17   36       1
    43   18   37       1
    44   19   38       1
    45   20   39       1
    46   21   40       1
@<TRIPOS>SUBSTRUCTURE
     1 GSP538      1 GROUP             4 A     GSP     0 **** GSP A 538
