#    Name: 65
#    Modification time : Tue Aug  8 22:21:14 2017

@<TRIPOS>MOLECULE
65
   34     0    12     0     0
SMALL
NO_CHARGES


@<TRIPOS>ATOM
      1 N         100.3500   26.2500   -3.2730 N.am      1 SEL1        0.0000 
      2 N         102.4090   27.1490   -2.1360 N.am      1 SEL1        0.0000 
      3 N         101.8500   28.3180    0.0570 N.am      1 SEL1        0.0000 
      4 N         101.2060   36.3850   -2.3060 N.am      1 SEL1        0.0000 
      5 O         103.4480   36.8880   -2.5220 O.2       2 ALL2        0.0000 
      6 O         105.7330   37.5170   -2.7670 O.2       2 ALL2        0.0000 
      7 NZ        100.3500   26.2500   -3.2730 N.4       3 LYL3        0.0000 
      8 CA        104.8640   28.8490   -2.3670 C.3       4 GLL5        0.0000 
      9 CA        105.7350   31.2660   -0.0960 C.3       4 GLL5        0.0000 
     10 N          98.6020   24.6140   -4.5540 N.am      5 SEP1        0.0000 
     11 N          98.9370   28.7680   -2.5650 N.am      5 SEP1        0.0000 
     12 N         101.0880   29.5940   -4.2020 N.am      5 SEP1        0.0000 
     13 N          99.7390   29.7870    1.6990 N.am      5 SEP1        0.0000 
     14 N          99.0110   37.2650   -0.7660 N.am      5 SEP1        0.0000 
     15 N         100.9330   37.9640    0.7910 N.am      5 SEP1        0.0000 
     16 O         104.8710   40.0070   -3.1940 O.2       6 ALP2        0.0000 
     17 O         102.7510   39.4600   -3.2770 O.2       6 ALP2        0.0000 
     18 NZ         98.6020   24.6140   -4.5540 N.4       7 LYP3        0.0000 
     19 CA        105.2590   26.7080   -6.0320 C.3       8 GLP5        0.0000 
     20 CA        102.7910   31.0720    1.8540 C.3       8 GLP5        0.0000 
     21 CA        104.2370   34.5660    2.0520 C.3       8 GLP5        0.0000 
     22 N          99.4760   25.4320   -3.9135 N.am      9 SEC1        0.0000 
     23 N          99.6435   27.5090   -2.9190 N.am      9 SEC1        0.0000 
     24 N         101.7485   28.3715   -3.1690 N.am      9 SEC1        0.0000 
     25 N         100.7945   29.0525    0.8780 N.am      9 SEC1        0.0000 
     26 N         100.1085   36.8250   -1.5360 N.am      9 SEC1        0.0000 
     27 N         101.0695   37.1745   -0.7575 N.am      9 SEC1        0.0000 
     28 O         104.1595   38.4475   -2.8580 O.2      10 ALC2        0.0000 
     29 O         103.0995   38.1740   -2.8995 O.2      10 ALC2        0.0000 
     30 O         105.3020   38.7620   -2.9805 O.2      10 ALC2        0.0000 
     31 NZ         99.4760   25.4320   -3.9135 N.4      11 LYC3        0.0000 
     32 CA        105.0615   27.7785   -4.1995 C.3      12 GLC5        0.0000 
     33 CA        104.2248   31.3872    0.5657 C.3      12 GLC5        0.0000 
     34 CA        104.9477   33.1343    0.6647 C.3      12 GLC5        0.0000 
@<TRIPOS>BOND
@<TRIPOS>SUBSTRUCTURE
     1 SEL1        1 GROUP        1 Z    SEL  0     ROOT SEL Z 0
     2 ALL2        5 GROUP        1 Z    ALL  0     **** ALL Z 1
     3 LYL3        7 GROUP        1 Z    LYL  0     **** LYL Z 2
     4 GLL5        8 GROUP        1 Z    GLL  0     **** GLL Z 4
     5 SEP1       10 GROUP        1 Z    SEP  0     **** SEP Z 7
     6 ALP2       16 GROUP        1 Z    ALP  0     **** ALP Z 8
     7 LYP3       18 GROUP        1 Z    LYP  0     **** LYP Z 9
     8 GLP5       19 GROUP        1 Z    GLP  0     **** GLP Z 11
     9 SEC1       22 GROUP        1 Z    SEC  0     **** SEC Z 14
    10 ALC2       28 GROUP        1 Z    ALC  0     **** ALC Z 15
    11 LYC3       31 GROUP        1 Z    LYC  0     **** LYC Z 16
    12 GLC5       32 GROUP        1 Z    GLC  0     **** GLC Z 18
@<TRIPOS>SET

