@<TRIPOS>MOLECULE
1a4r_GNH_1_ligand
   43    45     1     0     0
SMALL
NO_CHARGES


@<TRIPOS>ATOM
     1 N3B        102.4860    24.8700    -2.9090 N.3          1 GNH400   0.0000
     2 PB         101.5220    25.8860    -2.4280 P.3          1 GNH400   0.0000
     3 O1B        100.9830    25.4700    -1.0790 O.co2        1 GNH400   0.0000
     4 O2B        100.3500    26.2500    -3.2730 O.co2        1 GNH400  -1.0000
     5 O3A        102.4090    27.1490    -2.1360 O.3          1 GNH400   0.0000
     6 PA         102.9800    27.8190    -0.7750 P.3          1 GNH400   0.0000
     7 O1A        103.9320    26.8730    -0.1570 O.co2        1 GNH400   0.0000
     8 O2A        101.8500    28.3180     0.0570 O.co2        1 GNH400  -1.0000
     9 O5'        103.7180    29.0170    -1.4980 O.3          1 GNH400   0.0000
    10 C5'        104.8640    28.8490    -2.3670 C.3          1 GNH400   0.0000
    11 C4'        105.9930    29.8990    -2.1000 C.3          1 GNH400   0.0000
    12 O4'        105.4820    31.1830    -2.4390 O.3          1 GNH400   0.0000
    13 C3'        106.4630    30.0620    -0.6570 C.3          1 GNH400   0.0000
    14 O3'        107.8730    30.1930    -0.5940 O.3          1 GNH400   0.0000
    15 C2'        105.7350    31.2660    -0.0960 C.3          1 GNH400   0.0000
    16 O2'        106.2980    31.8890     1.0590 O.3          1 GNH400   0.0000
    17 C1'        105.5820    32.1390    -1.3490 C.3          1 GNH400   0.0000
    18 N9         104.3150    32.9430    -1.5100 N.pl3        1 GNH400   0.0000
    19 C8         103.0000    32.5360    -1.3540 C.2          1 GNH400   0.0000
    20 N7         102.0730    33.4460    -1.5560 N.2          1 GNH400   1.0000
    21 C5         102.8070    34.5960    -1.8890 C.2          1 GNH400   0.0000
    22 C6         102.3660    35.9710    -2.2360 C.2          1 GNH400   0.0000
    23 O6         101.2060    36.3850    -2.3060 O.2          1 GNH400   0.0000
    24 N1         103.4480    36.8880    -2.5220 N.pl3        1 GNH400   0.0000
    25 C2         104.8390    36.5560    -2.4810 C.2          1 GNH400   0.0000
    26 N2         105.7330    37.5170    -2.7670 N.pl3        1 GNH400   0.0000
    27 N3         105.2800    35.2710    -2.1570 N.2          1 GNH400   0.0000
    28 C4         104.2050    34.3230    -1.8660 C.2          1 GNH400   0.0000
    29 H3B1       103.2410    24.7923    -2.2579 H            1 GNH400   0.0000
    30 H3B2       102.0253    23.9864    -2.9922 H            1 GNH400   0.0000
    31 H5'1       104.5609    28.9412    -3.3155 H            1 GNH400   0.0000
    32 H5'2       105.2402    27.9334    -2.2248 H            1 GNH400   0.0000
    33 H4'        106.7797    29.6928    -2.6819 H            1 GNH400   0.0000
    34 H3'        106.1920    29.2518    -0.1373 H            1 GNH400   0.0000
    35 H7         108.1557    30.2982     0.3594 H            1 GNH400   0.0000
    36 H2'        104.8178    30.9587     0.1577 H            1 GNH400   0.0000
    37 H9         106.5211    32.8409     0.8489 H            1 GNH400   0.0000
    38 H1'        106.3847    32.7232    -1.4685 H            1 GNH400   0.0000
    39 H11        102.7676    31.5970    -1.1004 H            1 GNH400   0.0000
    40 H12        103.2047    37.8264    -2.7673 H            1 GNH400   0.0000
    41 H13        106.7115    37.3120    -2.7457 H            1 GNH400   0.0000
    42 H14        105.4200    38.4374    -3.0012 H            1 GNH400   0.0000
    43 H15        101.0805    33.3436    -1.4885 H            1 GNH400   0.0000
@<TRIPOS>BOND
     1    1    2       1
     2    2    3      ar
     3    2    4      ar
     4    2    5       1
     5    5    6       1
     6    6    7      ar
     7    6    8      ar
     8    6    9       1
     9    9   10       1
    10   10   11       1
    11   11   12       1
    12   11   13       1
    13   12   17       1
    14   13   14       1
    15   13   15       1
    16   15   16       1
    17   15   17       1
    18   17   18       1
    19   18   19       1
    20   18   28       1
    21   19   20       2
    22   20   21       1
    23   21   22       1
    24   21   28       2
    25   22   23       2
    26   22   24       1
    27   24   25       1
    28   25   26       1
    29   25   27       2
    30   27   28       1
    31    1   29       1
    32    1   30       1
    33   26   42       1
    34   26   41       1
    35   10   31       1
    36   10   32       1
    37   11   33       1
    38   13   34       1
    39   14   35       1
    40   15   36       1
    41   16   37       1
    42   17   38       1
    43   19   39       1
    44   24   40       1
    45   20   43       1
@<TRIPOS>SUBSTRUCTURE
     1 GNH400      1 GROUP             4 B     GNH     0 **** GNH B 400
