#    Name: 37
#    Modification time : Wed Aug  9 01:06:49 2017

@<TRIPOS>MOLECULE
37
   97     0    12     0     0
SMALL
NO_CHARGES


@<TRIPOS>ATOM
      1 N          48.7100   22.4380   34.3790 N.am      1 SEL1        0.0000 
      2 N          45.7580   18.6050   40.3760 N.am      1 SEL1        0.0000 
      3 N          45.5470   20.0670   38.4780 N.am      1 SEL1        0.0000 
      4 N          42.8270   20.3110   38.6820 N.am      1 SEL1        0.0000 
      5 N          39.3280   21.2910   44.0240 N.am      1 SEL1        0.0000 
      6 N          38.1080   23.1940   43.2950 N.am      1 SEL1        0.0000 
      7 N          37.0970   24.8120   42.3360 N.am      1 SEL1        0.0000 
      8 N          39.1660   24.1290   41.2040 N.am      1 SEL1        0.0000 
      9 N          37.0560   22.1750   45.8230 N.am      1 SEL1        0.0000 
     10 N          38.7770   23.0630   46.8540 N.am      1 SEL1        0.0000 
     11 O          50.0350   22.6720   36.1030 O.2       2 ALL2        0.0000 
     12 O          50.0840   22.9840   42.6460 O.2       2 ALL2        0.0000 
     13 O          48.8240   24.5940   40.4240 O.2       2 ALL2        0.0000 
     14 O          42.2430   20.4760   45.2150 O.2       2 ALL2        0.0000 
     15 O          43.6190   17.6740   44.2820 O.2       2 ALL2        0.0000 
     16 NZ         42.8270   20.3110   38.6820 N.4       3 LYL3        0.0000 
     17 NZ         43.6170   22.3650   39.5420 N.4       3 LYL3        0.0000 
     18 NZ         37.0970   24.8120   42.3360 N.4       3 LYL3        0.0000 
     19 NZ         39.1660   24.1290   41.2040 N.4       3 LYL3        0.0000 
     20 NZ         37.0560   22.1750   45.8230 N.4       3 LYL3        0.0000 
     21 CA         47.7660   20.0620   41.2510 C.3       4 GLL5        0.0000 
     22 CA         41.1980   19.8180   41.1000 C.3       4 GLL5        0.0000 
     23 CA         41.5280   20.1180   43.9700 C.3       4 GLL5        0.0000 
     24 CA         42.6570   19.7800   43.0030 C.3       4 GLL5        0.0000 
     25 CA         43.8560   19.0270   43.6360 C.3       4 GLL5        0.0000 
     26 CA         37.2840   21.7050   39.9190 C.3       4 GLL5        0.0000 
     27 CA         41.1310   22.9800   44.8910 C.3       4 GLL5        0.0000 
     28 CA         48.9250   22.3100   41.9800 C.3       4 GLL5        0.0000 
     29 N          50.1360   22.0450   32.0910 N.am      5 SEP1        0.0000 
     30 N          45.1600   16.4260   38.6950 N.am      5 SEP1        0.0000 
     31 N          46.9910   18.5360   36.6070 N.am      5 SEP1        0.0000 
     32 N          43.3420   17.9300   37.0920 N.am      5 SEP1        0.0000 
     33 N          37.1270   19.3870   43.5970 N.am      5 SEP1        0.0000 
     34 N          35.2990   22.6800   43.1290 N.am      5 SEP1        0.0000 
     35 N          35.6580   27.3630   42.2440 N.am      5 SEP1        0.0000 
     36 N          41.3860   25.6470   41.7210 N.am      5 SEP1        0.0000 
     37 N          41.0480   23.4020   48.5180 N.am      5 SEP1        0.0000 
     38 N          36.6660   21.8330   48.6660 N.am      5 SEP1        0.0000 
     39 O          51.9960   24.0970   34.3600 O.2       6 ALP2        0.0000 
     40 O          49.9270   21.5730   45.0790 O.2       6 ALP2        0.0000 
     41 O          49.4130   26.3390   42.7450 O.2       6 ALP2        0.0000 
     42 O          40.6040   20.8710   47.2660 O.2       6 ALP2        0.0000 
     43 O          42.2720   17.5510   46.8010 O.2       6 ALP2        0.0000 
     44 NZ         41.2850   23.5000   37.1400 N.4       7 LYP3        0.0000 
     45 NZ         42.6750   25.5070   41.5210 N.4       7 LYP3        0.0000 
     46 NZ         35.3890   27.8220   43.4340 N.4       7 LYP3        0.0000 
     47 NZ         35.2990   22.6800   43.1290 N.4       7 LYP3        0.0000 
     48 NZ         35.4900   21.2590   48.3320 N.4       7 LYP3        0.0000 
     49 CA         47.6660   19.5030   45.5590 C.3       8 GLP5        0.0000 
     50 CA         41.3480   16.2470   39.1850 C.3       8 GLP5        0.0000 
     51 CA         44.9050   22.2990   45.3000 C.3       8 GLP5        0.0000 
     52 CA         44.8570   22.9390   44.0420 C.3       8 GLP5        0.0000 
     53 CA         44.6750   19.3310   47.6570 C.3       8 GLP5        0.0000 
     54 CA         35.9020   18.0030   42.0550 C.3       8 GLP5        0.0000 
     55 CA         33.4100   22.6550   39.1580 C.3       8 GLP5        0.0000 
     56 CA         38.1830   19.9310   36.5980 C.3       8 GLP5        0.0000 
     57 CA         45.7690   23.9760   43.7200 C.3       8 GLP5        0.0000 
     58 CA         43.5650   25.5210   46.1140 C.3       8 GLP5        0.0000 
     59 N          49.4230   22.2415   33.2350 N.am      9 SEC1        0.0000 
     60 N          45.4590   17.5155   39.5355 N.am      9 SEC1        0.0000 
     61 N          46.2690   19.3015   37.5425 N.am      9 SEC1        0.0000 
     62 N          44.4445   18.9985   37.7850 N.am      9 SEC1        0.0000 
     63 N          43.0845   19.1205   37.8870 N.am      9 SEC1        0.0000 
     64 N          38.2275   20.3390   43.8105 N.am      9 SEC1        0.0000 
     65 N          36.7035   22.9370   43.2120 N.am      9 SEC1        0.0000 
     66 N          36.3775   26.0875   42.2900 N.am      9 SEC1        0.0000 
     67 N          36.1980   23.7460   42.7325 N.am      9 SEC1        0.0000 
     68 N          40.2760   24.8880   41.4625 N.am      9 SEC1        0.0000 
     69 N          36.1775   22.4275   44.4760 N.am      9 SEC1        0.0000 
     70 N          39.9125   23.2325   47.6860 N.am      9 SEC1        0.0000 
     71 N          37.7215   22.4480   47.7600 N.am      9 SEC1        0.0000 
     72 O          51.0155   23.3845   35.2315 O.2      10 ALC2        0.0000 
     73 O          50.0055   22.2785   43.8625 O.2      10 ALC2        0.0000 
     74 O          49.1185   25.4665   41.5845 O.2      10 ALC2        0.0000 
     75 O          41.4235   20.6735   46.2405 O.2      10 ALC2        0.0000 
     76 O          42.9455   17.6125   45.5415 O.2      10 ALC2        0.0000 
     77 NZ         42.0560   21.9055   37.9110 N.4      11 LYC3        0.0000 
     78 NZ         43.1460   23.9360   40.5315 N.4      11 LYC3        0.0000 
     79 NZ         42.4510   22.9325   38.3410 N.4      11 LYC3        0.0000 
     80 NZ         36.2430   26.3170   42.8850 N.4      11 LYC3        0.0000 
     81 NZ         36.1980   23.7460   42.7325 N.4      11 LYC3        0.0000 
     82 NZ         40.9205   24.8180   41.3625 N.4      11 LYC3        0.0000 
     83 NZ         36.1775   22.4275   44.4760 N.4      11 LYC3        0.0000 
     84 NZ         36.2730   21.7170   47.0775 N.4      11 LYC3        0.0000 
     85 CA         47.7160   19.7825   43.4050 C.3      12 GLC5        0.0000 
     86 CA         41.2730   18.0325   40.1425 C.3      12 GLC5        0.0000 
     87 CA         43.2165   21.2085   44.6350 C.3      12 GLC5        0.0000 
     88 CA         43.7570   21.3595   43.5225 C.3      12 GLC5        0.0000 
     89 CA         44.2655   19.1790   45.6465 C.3      12 GLC5        0.0000 
     90 CA         45.7610   19.2650   44.5975 C.3      12 GLC5        0.0000 
     91 CA         44.3805   20.6630   44.4680 C.3      12 GLC5        0.0000 
     92 CA         36.5930   19.8540   40.9870 C.3      12 GLC5        0.0000 
     93 CA         35.3470   22.1800   39.5385 C.3      12 GLC5        0.0000 
     94 CA         37.7335   20.8180   38.2585 C.3      12 GLC5        0.0000 
     95 CA         42.9940   22.9595   44.4665 C.3      12 GLC5        0.0000 
     96 CA         47.3182   23.3413   42.5107 C.3      12 GLC5        0.0000 
     97 CA         42.0795   24.4218   45.3950 C.3      12 GLC5        0.0000 
@<TRIPOS>BOND
@<TRIPOS>SUBSTRUCTURE
     1 SEL1        1 GROUP        1 Z    SEL  0     ROOT SEL Z 0
     2 ALL2       11 GROUP        1 Z    ALL  0     **** ALL Z 1
     3 LYL3       16 GROUP        1 Z    LYL  0     **** LYL Z 2
     4 GLL5       21 GROUP        1 Z    GLL  0     **** GLL Z 4
     5 SEP1       29 GROUP        1 Z    SEP  0     **** SEP Z 7
     6 ALP2       39 GROUP        1 Z    ALP  0     **** ALP Z 8
     7 LYP3       44 GROUP        1 Z    LYP  0     **** LYP Z 9
     8 GLP5       49 GROUP        1 Z    GLP  0     **** GLP Z 11
     9 SEC1       59 GROUP        1 Z    SEC  0     **** SEC Z 14
    10 ALC2       72 GROUP        1 Z    ALC  0     **** ALC Z 15
    11 LYC3       77 GROUP        1 Z    LYC  0     **** LYC Z 16
    12 GLC5       85 GROUP        1 Z    GLC  0     **** GLC Z 18
@<TRIPOS>SET

