1a2n_TET_1_ligand
  -OEChem-08111718373D

 76 78  0     1  0  0  0  0  0999 V2000
   46.9628   21.7103   36.2024 H   0  0  0  0  0  0  0  0  0  0  0  0
   47.4654   21.5809   38.5248 H   0  0  0  0  0  0  0  0  0  0  0  0
   39.5451   19.4044   42.3041 H   0  0  0  0  0  0  0  0  0  0  0  0
   40.9267   21.8710   42.9200 H   0  0  0  0  0  0  0  0  0  0  0  0
   41.0581   19.2557   44.1590 H   0  0  0  0  0  0  0  0  0  0  0  0
   48.0909   22.3974   42.5246 H   0  0  0  0  0  0  0  0  0  0  0  0
   47.9024   22.8445   40.2923 H   0  0  0  0  0  0  0  0  0  0  0  0
   49.7342   20.3274   41.9680 H   0  0  0  0  0  0  0  0  0  0  0  0
   43.0119   20.6495   42.6596 H   0  0  0  0  0  0  0  0  0  0  0  0
   50.7033   22.5519   39.8471 H   0  0  0  0  0  0  0  0  0  0  0  0
   40.8647   19.2582   40.3413 H   0  0  0  0  0  0  0  0  0  0  0  0
   36.7346   21.3207   39.1771 H   0  0  0  0  0  0  0  0  0  0  0  0
   36.6911   21.9243   40.6938 H   0  0  0  0  0  0  0  0  0  0  0  0
   37.7382   22.5371   39.6008 H   0  0  0  0  0  0  0  0  0  0  0  0
   47.4481   19.8039   42.1633 H   0  0  0  0  0  0  0  0  0  0  0  0
   47.9572   19.2372   40.7189 H   0  0  0  0  0  0  0  0  0  0  0  0
   44.2382   19.6249   44.3406 H   0  0  0  0  0  0  0  0  0  0  0  0
   44.5318   18.8912   42.9116 H   0  0  0  0  0  0  0  0  0  0  0  0
   39.8189   24.3837   45.1143 H   0  0  0  0  0  0  0  0  0  0  0  0
   40.2410   24.0744   43.5674 H   0  0  0  0  0  0  0  0  0  0  0  0
   50.7522   22.9792   35.4774 H   0  0  0  0  0  0  0  0  0  0  0  0
   39.0456   22.0545   41.6005 H   0  0  0  0  0  0  0  0  0  0  0  0
   41.5791   20.6513   45.9420 H   0  0  0  0  0  0  0  0  0  0  0  0
   50.2533   22.5560   43.5338 H   0  0  0  0  0  0  0  0  0  0  0  0
   49.0988   25.0413   41.2751 H   0  0  0  0  0  0  0  0  0  0  0  0
   43.3974   17.8005   45.2489 H   0  0  0  0  0  0  0  0  0  0  0  0
   47.8790   21.9480   36.5250 C   0  0  0  0  0  0  0  0  0  0  0  0
   48.1570   21.8900   37.8720 C   0  0  0  0  0  0  0  0  0  0  0  0
   48.8840   22.3450   35.5710 C   0  0  0  0  0  0  0  0  0  0  0  0
   50.3320   22.6350   37.3630 C   0  0  0  0  0  0  0  0  0  0  0  0
   38.3310   20.6900   40.3530 C   0  0  0  0  0  0  0  0  0  0  0  0
   38.2900   22.6570   45.8340 C   0  0  0  0  0  0  0  0  0  0  0  0
   40.0270   20.2250   41.9970 C   0  0  2  0  0  0  0  0  0  0  0  0
   40.4960   21.0160   43.2090 C   0  0  2  0  0  0  0  0  0  0  0  0
   41.5280   20.1180   43.9700 C   0  0  1  0  0  0  0  0  0  0  0  0
   48.9250   22.3100   41.9800 C   0  0  1  0  0  0  0  0  0  0  0  0
   48.8100   23.1030   40.6230 C   0  0  2  0  0  0  0  0  0  0  0  0
   49.0880   20.8470   41.4090 C   0  0  1  0  0  0  0  0  0  0  0  0
   42.6570   19.7800   43.0030 C   0  0  1  0  0  0  0  0  0  0  0  0
   49.7500   22.2790   39.7180 C   0  0  2  0  0  0  0  0  0  0  0  0
   41.1980   19.8180   41.1000 C   0  0  2  0  0  0  0  0  0  0  0  0
   37.2840   21.7050   39.9190 C   0  0  0  0  0  0  0  0  0  0  0  0
   47.7660   20.0620   41.2510 C   0  0  2  0  0  0  0  0  0  0  0  0
   43.8560   19.0270   43.6360 C   0  0  2  0  0  0  0  0  0  0  0  0
   40.0570   23.6650   44.4610 C   0  0  2  0  0  0  0  0  0  0  0  0
   38.9440   22.6660   44.3570 C   0  0  1  0  0  0  0  0  0  0  0  0
   50.0350   22.6720   36.1030 N   0  0  0  0  0  0  0  0  0  0  0  0
   49.3940   22.2630   38.2930 N   0  0  0  0  0  0  0  0  0  0  0  0
   39.0990   21.0970   41.3170 N   0  0  0  0  0  0  0  0  0  0  0  0
   38.7770   23.0630   46.8540 O   0  5  0  0  0  0  0  0  0  0  0  0
   39.1660   24.1290   41.2040 O   0  5  0  0  0  0  0  0  0  0  0  0
   39.0020   25.5250   43.2500 O   0  5  0  0  0  0  0  0  0  0  0  0
   43.6170   22.3650   39.5420 O   0  5  0  0  0  0  0  0  0  0  0  0
   45.5470   20.0670   38.4780 O   0  5  0  0  0  0  0  0  0  0  0  0
   48.7100   22.4380   34.3790 O   0  0  0  0  0  0  0  0  0  0  0  0
   51.4410   23.0520   37.7060 O   0  0  0  0  0  0  0  0  0  0  0  0
   38.4910   19.5780   39.8990 O   0  0  0  0  0  0  0  0  0  0  0  0
   37.0560   22.1750   45.8230 O   0  0  0  0  0  0  0  0  0  0  0  0
   37.0970   24.8120   42.3360 O   0  0  0  0  0  0  0  0  0  0  0  0
   42.8270   20.3110   38.6820 O   0  0  0  0  0  0  0  0  0  0  0  0
   45.7580   18.6050   40.3760 O   0  0  0  0  0  0  0  0  0  0  0  0
   49.5530   20.9420   40.0950 O   0  0  0  0  0  0  0  0  0  0  0  0
   42.1200   19.0770   41.8720 O   0  0  0  0  0  0  0  0  0  0  0  0
   42.2430   20.4760   45.2150 O   0  0  0  0  0  0  0  0  0  0  0  0
   50.0840   22.9840   42.6460 O   0  0  0  0  0  0  0  0  0  0  0  0
   48.8240   24.5940   40.4240 O   0  0  0  0  0  0  0  0  0  0  0  0
   43.6190   17.6740   44.2820 O   0  0  0  0  0  0  0  0  0  0  0  0
   39.3280   21.2910   44.0240 O   0  0  0  0  0  0  0  0  0  0  0  0
   41.8030   21.0030   40.5950 O   0  0  0  0  0  0  0  0  0  0  0  0
   46.6990   20.7830   40.5920 O   0  0  0  0  0  0  0  0  0  0  0  0
   38.1080   23.1940   43.2950 O   0  0  0  0  0  0  0  0  0  0  0  0
   44.2400   20.2290   40.5730 O   0  0  0  0  0  0  0  0  0  0  0  0
   41.1310   22.9800   44.8910 F   0  0  0  0  0  0  0  0  0  0  0  0
   38.4640   24.4340   42.4810 P   0  0  0  0  0  0  0  0  0  0  0  0
   43.1760   21.0090   39.8650 P   0  0  2  0  0  0  0  0  0  0  0  0
   45.5540   19.9700   39.9420 P   0  0  1  0  0  0  0  0  0  0  0  0
  1 27  1  0  0  0  0
  2 28  1  0  0  0  0
  3 33  1  0  0  0  0
  4 34  1  0  0  0  0
  5 35  1  0  0  0  0
  6 36  1  0  0  0  0
  7 37  1  0  0  0  0
  8 38  1  0  0  0  0
  9 39  1  0  0  0  0
 10 40  1  0  0  0  0
 11 41  1  0  0  0  0
 12 42  1  0  0  0  0
 13 42  1  0  0  0  0
 14 42  1  0  0  0  0
 15 43  1  0  0  0  0
 16 43  1  0  0  0  0
 17 44  1  0  0  0  0
 18 44  1  0  0  0  0
 19 45  1  0  0  0  0
 20 45  1  0  0  0  0
 21 47  1  0  0  0  0
 22 49  1  0  0  0  0
 23 64  1  0  0  0  0
 24 65  1  0  0  0  0
 25 66  1  0  0  0  0
 26 67  1  0  0  0  0
 27 28  2  0  0  0  0
 27 29  1  0  0  0  0
 28 48  1  0  0  0  0
 29 47  1  0  0  0  0
 29 55  2  0  0  0  0
 30 47  1  0  0  0  0
 30 48  1  0  0  0  0
 30 56  2  0  0  0  0
 31 42  1  0  0  0  0
 31 49  1  0  0  0  0
 31 57  2  0  0  0  0
 32 46  1  0  0  0  0
 32 50  1  0  0  0  0
 32 58  2  0  0  0  0
 33 34  1  0  0  0  0
 33 41  1  0  0  0  0
 33 49  1  0  0  0  0
 34 35  1  0  0  0  0
 34 68  1  0  0  0  0
 35 39  1  0  0  0  0
 35 64  1  0  0  0  0
 36 37  1  0  0  0  0
 36 38  1  0  0  0  0
 36 65  1  0  0  0  0
 37 40  1  0  0  0  0
 37 66  1  0  0  0  0
 38 43  1  0  0  0  0
 38 62  1  0  0  0  0
 39 44  1  0  0  0  0
 39 63  1  0  0  0  0
 40 48  1  0  0  0  0
 40 62  1  0  0  0  0
 41 63  1  0  0  0  0
 41 69  1  0  0  0  0
 43 70  1  0  0  0  0
 44 67  1  0  0  0  0
 45 46  1  0  0  0  0
 45 73  1  0  0  0  0
 46 68  1  0  0  0  0
 46 71  1  0  0  0  0
 51 74  1  0  0  0  0
 52 74  1  0  0  0  0
 53 75  1  0  0  0  0
 54 76  1  0  0  0  0
 59 74  2  0  0  0  0
 60 75  2  0  0  0  0
 61 76  2  0  0  0  0
 69 75  1  0  0  0  0
 70 76  1  0  0  0  0
 71 74  1  0  0  0  0
 72 75  1  0  0  0  0
 72 76  1  0  0  0  0
M  CHG  5  54  -1  53  -1  51  -1  52  -1  50  -1
M  END
> <scpdb_id>
1a2n_1

$$$$
