#    Name: 57
#    Modification time : Tue Aug  8 23:29:15 2017

@<TRIPOS>MOLECULE
57
   44     0     9     0     0
SMALL
NO_CHARGES


@<TRIPOS>ATOM
      1 N          -4.4870   43.5740   29.2200 N.am      1 SEL1        0.0000 
      2 N          -6.7040   43.3560   30.7840 N.am      1 SEL1        0.0000 
      3 N          -2.2050   47.9300   25.5840 N.am      1 SEL1        0.0000 
      4 N          -3.9920   54.0460   27.0770 N.am      1 SEL1        0.0000 
      5 N          -7.8020   41.2980   31.1280 N.am      1 SEL1        0.0000 
      6 N          -6.3700   41.5830   29.1220 N.am      1 SEL1        0.0000 
      7 NZ         -7.8020   41.2980   31.1280 N.4       2 LYL3        0.0000 
      8 NZ         -6.3700   41.5830   29.1220 N.4       2 LYL3        0.0000 
      9 CA         -5.6710   45.5440   31.1230 C.3       3 GLL5        0.0000 
     10 CA         -2.9430   50.5140   26.8700 C.3       3 GLL5        0.0000 
     11 CA          0.8870   52.9390   22.1580 C.3       3 GLL5        0.0000 
     12 CA          0.1790   51.8670   22.5600 C.3       3 GLL5        0.0000 
     13 N          -1.6720   43.1500   29.3430 N.am      4 SEP1        0.0000 
     14 N          -6.9090   42.4220   33.9420 N.am      4 SEP1        0.0000 
     15 N          -1.2570   46.2180   27.6120 N.am      4 SEP1        0.0000 
     16 N          -1.3230   45.6520   24.6920 N.am      4 SEP1        0.0000 
     17 N          -2.6120   56.7240   27.5690 N.am      4 SEP1        0.0000 
     18 N          -9.6260   41.8890   32.8120 N.am      4 SEP1        0.0000 
     19 N          -7.0240   38.5150   30.7960 N.am      4 SEP1        0.0000 
     20 N          -4.9500   39.2920   30.0850 N.am      4 SEP1        0.0000 
     21 NZ         -5.7000   38.3220   30.5850 N.4       5 LYP3        0.0000 
     22 CA         -3.6740   48.4950   32.9940 C.3       6 GLP5        0.0000 
     23 CA          0.3790   49.1300   28.9110 C.3       6 GLP5        0.0000 
     24 CA          4.5440   50.8280   22.9250 C.3       6 GLP5        0.0000 
     25 CA          4.2860   51.3800   24.3150 C.3       6 GLP5        0.0000 
     26 CA          0.6540   48.1300   20.4210 C.3       6 GLP5        0.0000 
     27 CA          1.2590   48.9730   24.4040 C.3       6 GLP5        0.0000 
     28 N          -3.0795   43.3620   29.2815 N.am      7 SEC1        0.0000 
     29 N          -6.8065   42.8890   32.3630 N.am      7 SEC1        0.0000 
     30 N          -1.7310   47.0740   26.5980 N.am      7 SEC1        0.0000 
     31 N          -1.7640   46.7910   25.1380 N.am      7 SEC1        0.0000 
     32 N          -3.3020   55.3850   27.3230 N.am      7 SEC1        0.0000 
     33 N          -8.7140   41.5935   31.9700 N.am      7 SEC1        0.0000 
     34 N          -7.3555   41.8600   32.5350 N.am      7 SEC1        0.0000 
     35 N          -7.4130   39.9065   30.9620 N.am      7 SEC1        0.0000 
     36 N          -5.6600   40.4375   29.6035 N.am      7 SEC1        0.0000 
     37 NZ         -6.7510   39.8100   30.8565 N.4       8 LYC3        0.0000 
     38 NZ         -6.0350   39.9525   29.8535 N.4       8 LYC3        0.0000 
     39 CA         -4.6725   47.0195   32.0585 C.3       9 GLC5        0.0000 
     40 CA         -1.2820   49.8220   27.8905 C.3       9 GLC5        0.0000 
     41 CA          2.7155   51.8835   22.5415 C.3       9 GLC5        0.0000 
     42 CA          2.2325   51.6235   23.4375 C.3       9 GLC5        0.0000 
     43 CA          0.4165   49.9985   21.4905 C.3       9 GLC5        0.0000 
     44 CA          0.7190   50.4200   23.4820 C.3       9 GLC5        0.0000 
@<TRIPOS>BOND
@<TRIPOS>SUBSTRUCTURE
     1 SEL1        1 GROUP        1 Z    SEL  0     ROOT SEL Z 0
     2 LYL3        7 GROUP        1 Z    LYL  0     **** LYL Z 2
     3 GLL5        9 GROUP        1 Z    GLL  0     **** GLL Z 4
     4 SEP1       13 GROUP        1 Z    SEP  0     **** SEP Z 7
     5 LYP3       21 GROUP        1 Z    LYP  0     **** LYP Z 9
     6 GLP5       22 GROUP        1 Z    GLP  0     **** GLP Z 11
     7 SEC1       28 GROUP        1 Z    SEC  0     **** SEC Z 14
     8 LYC3       37 GROUP        1 Z    LYC  0     **** LYC Z 16
     9 GLC5       39 GROUP        1 Z    GLC  0     **** GLC Z 18
@<TRIPOS>SET

