@<TRIPOS>MOLECULE
1a4i_NDP_1_ligand
   73    77     1     0     0
SMALL
NO_CHARGES


@<TRIPOS>ATOM
     1 PA          -5.7120    47.2840    25.5380 P.3          1 NDP302   0.0000
     2 O1A         -5.6060    46.3770    24.4310 O.co2        1 NDP302   0.0000
     3 O2A         -7.0050    47.9580    25.9070 O.co2        1 NDP302  -1.0000
     4 O5B         -5.2150    46.4240    26.8470 O.3          1 NDP302   0.0000
     5 C5B         -5.3020    47.0410    28.1290 C.3          1 NDP302   0.0000
     6 C4B         -4.8090    45.9540    29.0640 C.3          1 NDP302   0.0000
     7 O4B         -4.9450    46.4990    30.3960 O.3          1 NDP302   0.0000
     8 C3B         -5.4630    44.6160    29.0020 C.3          1 NDP302   0.0000
     9 O3B         -4.4870    43.5740    29.2200 O.3          1 NDP302   0.0000
    10 C2B         -6.3700    44.6120    30.1950 C.3          1 NDP302   0.0000
    11 O2B         -6.7040    43.3560    30.7840 O.3          1 NDP302   0.0000
    12 C1B         -5.6710    45.5440    31.1230 C.3          1 NDP302   0.0000
    13 N9A         -6.5560    46.1490    32.1320 N.pl3        1 NDP302   0.0000
    14 C8A         -7.7250    46.9020    31.9310 C.2          1 NDP302   0.0000
    15 N7A         -8.2600    47.2410    33.0830 N.2          1 NDP302   0.0000
    16 C5A         -7.4440    46.7300    34.0570 C.ar         1 NDP302   0.0000
    17 C6A         -7.4720    46.7570    35.4480 C.ar         1 NDP302   0.0000
    18 N6A         -8.4770    47.3470    36.0920 N.pl3        1 NDP302   0.0000
    19 N1A         -6.5010    46.1470    36.1220 N.ar         1 NDP302   0.0000
    20 C2A         -5.5150    45.5410    35.4590 C.ar         1 NDP302   0.0000
    21 N3A         -5.3880    45.4590    34.1510 N.ar         1 NDP302   0.0000
    22 C4A         -6.4050    46.0750    33.4970 C.ar         1 NDP302   0.0000
    23 O3          -4.6410    48.4370    25.5110 O.3          1 NDP302   0.0000
    24 PN          -3.2150    48.7610    24.8610 P.3          1 NDP302   0.0000
    25 O1N         -3.4020    48.6660    23.4050 O.co2        1 NDP302   0.0000
    26 O2N         -2.2050    47.9300    25.5840 O.co2        1 NDP302  -1.0000
    27 O5D         -3.0240    50.2530    25.4260 O.3          1 NDP302   0.0000
    28 C5D         -2.9430    50.5140    26.8700 C.3          1 NDP302   0.0000
    29 C4D         -2.6530    52.0300    27.0580 C.3          1 NDP302   0.0000
    30 O4D         -1.4580    52.2910    26.3530 O.3          1 NDP302   0.0000
    31 C3D         -3.7150    52.8670    26.3260 C.3          1 NDP302   0.0000
    32 O3D         -3.9920    54.0460    27.0770 O.3          1 NDP302   0.0000
    33 C2D         -3.1340    53.1600    24.9770 C.3          1 NDP302   0.0000
    34 O2D         -3.6750    54.3790    24.5000 O.3          1 NDP302   0.0000
    35 C1D         -1.6460    53.3780    25.4630 C.3          1 NDP302   0.0000
    36 N1N         -0.7230    53.1850    24.3300 N.ar         1 NDP302   1.0000
    37 C2N         -0.0340    54.3110    23.9220 C.ar         1 NDP302   0.0000
    38 C3N          0.8250    54.1550    22.7990 C.ar         1 NDP302   0.0000
    39 C7N          1.5750    55.3060    22.3180 C.2          1 NDP302   0.0000
    40 O7N          1.8081    56.3097    23.0163 O.2          1 NDP302   0.0000
    41 N7N          1.9891    55.3431    21.0370 N.am         1 NDP302   0.0000
    42 C4N          0.8870    52.9390    22.1580 C.ar         1 NDP302   0.0000
    43 C5N          0.1790    51.8670    22.5600 C.ar         1 NDP302   0.0000
    44 C6N         -0.6320    51.9900    23.6470 C.ar         1 NDP302   0.0000
    45 P2B         -7.3690    42.1870    30.0360 P.3          1 NDP302   0.0000
    46 O1X         -7.8020    41.2980    31.1280 O.co2        1 NDP302   0.0000
    47 O2X         -6.3700    41.5830    29.1220 O.co2        1 NDP302  -1.0000
    48 O3X         -8.5710    42.7110    29.2500 O.co2        1 NDP302  -1.0000
    49 H5B1        -6.2449    47.2974    28.3413 H            1 NDP302   0.0000
    50 H5B2        -4.7171    47.8506    28.1788 H            1 NDP302   0.0000
    51 H4B         -3.8333    45.8228    28.8884 H            1 NDP302   0.0000
    52 H3B         -5.9667    44.4846    28.1482 H            1 NDP302   0.0000
    53 H5          -4.9365    42.6818    29.1763 H            1 NDP302   0.0000
    54 H2B         -7.2260    45.0501    29.9207 H            1 NDP302   0.0000
    55 H1B         -5.0002    44.9971    31.6239 H            1 NDP302   0.0000
    56 H8A         -8.0982    47.1462    31.0360 H            1 NDP302   0.0000
    57 H6A1        -8.4899    47.3622    37.0918 H            1 NDP302   0.0000
    58 H6A2        -9.2189    47.7749    35.5759 H            1 NDP302   0.0000
    59 H2A         -4.8022    45.1062    36.0094 H            1 NDP302   0.0000
    60 H5D1        -2.2050    49.9730    27.2735 H            1 NDP302   0.0000
    61 H5D2        -3.8094    50.2756    27.3088 H            1 NDP302   0.0000
    62 H4D         -2.5799    52.2799    28.0235 H            1 NDP302   0.0000
    63 H3D         -4.5525    52.3305    26.2218 H            1 NDP302   0.0000
    64 H16         -4.9393    54.3258    26.9208 H            1 NDP302   0.0000
    65 H2D         -3.2325    52.4033    24.3307 H            1 NDP302   0.0000
    66 H18         -3.8903    54.9738    25.2745 H            1 NDP302   0.0000
    67 H1D         -1.5181    54.2628    25.9111 H            1 NDP302   0.0000
    68 H2N         -0.1339    55.1885    24.3910 H            1 NDP302   0.0000
    69 H7N1         2.4151    56.1714    20.6730 H            1 NDP302   0.0000
    70 H7N2         1.8707    54.5424    20.4498 H            1 NDP302   0.0000
    71 H4N          1.4829    52.8478    21.3602 H            1 NDP302   0.0000
    72 H5N          0.2472    50.9978    22.0703 H            1 NDP302   0.0000
    73 H6N         -1.1685    51.2039    23.9540 H            1 NDP302   0.0000
@<TRIPOS>BOND
     1    1    2      ar
     2    1    3      ar
     3    1    4       1
     4    1   23       1
     5    4    5       1
     6    5    6       1
     7    6    7       1
     8    6    8       1
     9    7   12       1
    10    8    9       1
    11    8   10       1
    12   10   11       1
    13   10   12       1
    14   11   45       1
    15   12   13       1
    16   13   14       1
    17   13   22       1
    18   14   15       2
    19   15   16       1
    20   16   17      ar
    21   16   22      ar
    22   17   18       1
    23   17   19      ar
    24   19   20      ar
    25   20   21      ar
    26   21   22      ar
    27   23   24       1
    28   24   25      ar
    29   24   26      ar
    30   24   27       1
    31   27   28       1
    32   28   29       1
    33   29   30       1
    34   29   31       1
    35   30   35       1
    36   31   32       1
    37   31   33       1
    38   33   34       1
    39   33   35       1
    40   35   36       1
    41   36   37      ar
    42   36   44      ar
    43   37   38      ar
    44   38   39       1
    45   38   42      ar
    46   39   40       2
    47   39   41      am
    48   42   43      ar
    49   43   44      ar
    50   45   46      ar
    51   45   47      ar
    52   45   48      ar
    53   43   72       1
    54    5   49       1
    55    5   50       1
    56    6   51       1
    57    8   52       1
    58    9   53       1
    59   10   54       1
    60   12   55       1
    61   14   56       1
    62   18   57       1
    63   18   58       1
    64   20   59       1
    65   44   73       1
    66   28   60       1
    67   28   61       1
    68   29   62       1
    69   31   63       1
    70   32   64       1
    71   33   65       1
    72   34   66       1
    73   35   67       1
    74   37   68       1
    75   41   69       1
    76   41   70       1
    77   42   71       1
@<TRIPOS>SUBSTRUCTURE
     1 NDP302      1 GROUP             4 A     NDP     0 **** NDP A 302
