#    Name: 34
#    Modification time : Wed Aug  9 01:33:09 2017

@<TRIPOS>MOLECULE
34
   62     0    15     0     0
SMALL
NO_CHARGES


@<TRIPOS>ATOM
      1 N           9.7490   29.0980   27.4300 N.am      1 SEL1        0.0000 
      2 N           8.9680   31.1250   26.0820 N.am      1 SEL1        0.0000 
      3 N           7.8360   28.8930   25.8210 N.am      1 SEL1        0.0000 
      4 N          11.0350   27.2470   26.4810 N.am      1 SEL1        0.0000 
      5 N          11.6020   29.5360   25.6480 N.am      1 SEL1        0.0000 
      6 N          14.4040   29.5200   27.1490 N.am      1 SEL1        0.0000 
      7 N          12.2440   28.7330   28.0130 N.am      1 SEL1        0.0000 
      8 N          15.2880   27.6270   32.0370 N.am      1 SEL1        0.0000 
      9 N          20.5610   24.6970   29.0910 N.am      1 SEL1        0.0000 
     10 O          20.2690   24.7350   31.3480 O.2       2 ALL2        0.0000 
     11 O          20.0480   24.7040   33.6630 O.2       2 ALL2        0.0000 
     12 NZ          7.8360   28.8930   25.8210 N.4       3 LYL3        0.0000 
     13 NZ         11.0350   27.2470   26.4810 N.4       3 LYL3        0.0000 
     14 CA         13.4480   28.5810   30.7250 C.3       4 GLL5        0.0000 
     15 CA         14.9130   29.9750   32.1750 C.3       4 GLL5        0.0000 
     16 CA         16.3490   29.7310   31.6550 C.3       4 GLL5        0.0000 
     17 Zn          8.9680   31.1250   26.0820 Zn        5 ZIL7        0.0000 
     18 Zn         11.6020   29.5360   25.6480 Zn        5 ZIL7        0.0000 
     19 N           8.9500   27.0780   29.2400 N.am      6 SEP1        0.0000 
     20 N           7.7130   34.0040   25.8930 N.am      6 SEP1        0.0000 
     21 N           5.2460   28.6590   24.1090 N.am      6 SEP1        0.0000 
     22 N           8.8040   26.5990   24.3280 N.am      6 SEP1        0.0000 
     23 N          13.5330   25.9810   27.5650 N.am      6 SEP1        0.0000 
     24 N          13.6840   26.9530   24.9360 N.am      6 SEP1        0.0000 
     25 N          11.1430   25.3720   28.5050 N.am      6 SEP1        0.0000 
     26 N          14.0720   29.6950   23.9440 N.am      6 SEP1        0.0000 
     27 N          16.5310   30.6980   25.2730 N.am      6 SEP1        0.0000 
     28 N          14.1400   24.6040   32.0360 N.am      6 SEP1        0.0000 
     29 N          23.3500   26.6490   28.7430 N.am      6 SEP1        0.0000 
     30 N          22.4160   25.0880   26.8450 N.am      6 SEP1        0.0000 
     31 O          22.3980   22.6010   31.3430 O.2       7 ALP2        0.0000 
     32 O          22.5410   23.0310   33.4940 O.2       7 ALP2        0.0000 
     33 NZ          8.8040   26.5990   24.3280 N.4       8 LYP3        0.0000 
     34 CA         11.2920   32.4890   30.8700 C.3       9 GLP5        0.0000 
     35 CA         12.9030   33.3610   32.6340 C.3       9 GLP5        0.0000 
     36 CA         17.4960   31.1300   28.3870 C.3       9 GLP5        0.0000 
     37 CA         10.0260   27.3760   31.4400 C.3       9 GLP5        0.0000 
     38 Zn         10.8490   31.8020   25.0070 Zn       10 ZIP7        0.0000 
     39 N           9.3495   28.0880   28.3350 N.am     11 SEC1        0.0000 
     40 N           8.3405   32.5645   25.9875 N.am     11 SEC1        0.0000 
     41 N           6.5410   28.7760   24.9650 N.am     11 SEC1        0.0000 
     42 N           8.3200   27.7460   25.0745 N.am     11 SEC1        0.0000 
     43 N           9.9195   26.9230   25.4045 N.am     11 SEC1        0.0000 
     44 N          12.2840   26.6140   27.0230 N.am     11 SEC1        0.0000 
     45 N          12.3595   27.1000   25.7085 N.am     11 SEC1        0.0000 
     46 N          11.0890   26.3095   27.4930 N.am     11 SEC1        0.0000 
     47 N          12.8370   29.6155   24.7960 N.am     11 SEC1        0.0000 
     48 N          15.4675   30.1090   26.2110 N.am     11 SEC1        0.0000 
     49 N          12.8885   27.3570   27.7890 N.am     11 SEC1        0.0000 
     50 N          14.7140   26.1155   32.0365 N.am     11 SEC1        0.0000 
     51 N          21.9555   25.6730   28.9170 N.am     11 SEC1        0.0000 
     52 N          21.4885   24.8925   27.9680 N.am     11 SEC1        0.0000 
     53 O          21.3335   23.6680   31.3455 O.2      12 ALC2        0.0000 
     54 O          21.2945   23.8675   33.5785 O.2      12 ALC2        0.0000 
     55 NZ          8.3200   27.7460   25.0745 N.4      13 LYC3        0.0000 
     56 NZ          9.9195   26.9230   25.4045 N.4      13 LYC3        0.0000 
     57 CA         12.3700   30.5350   30.7975 C.3      14 GLC5        0.0000 
     58 CA         13.9080   31.6680   32.4045 C.3      14 GLC5        0.0000 
     59 CA         16.9225   30.4305   30.0210 C.3      14 GLC5        0.0000 
     60 CA         11.9290   27.9892   31.4053 C.3      14 GLC5        0.0000 
     61 Zn          9.9085   31.4635   25.5445 Zn       15 ZIC7        0.0000 
     62 Zn         11.2255   30.6690   25.3275 Zn       15 ZIC7        0.0000 
@<TRIPOS>BOND
@<TRIPOS>SUBSTRUCTURE
     1 SEL1        1 GROUP        1 Z    SEL  0     ROOT SEL Z 0
     2 ALL2       10 GROUP        1 Z    ALL  0     **** ALL Z 1
     3 LYL3       12 GROUP        1 Z    LYL  0     **** LYL Z 2
     4 GLL5       14 GROUP        1 Z    GLL  0     **** GLL Z 4
     5 ZIL7       17 GROUP        1 Z    ZIL  0     **** ZIL Z 5
     6 SEP1       19 GROUP        1 Z    SEP  0     **** SEP Z 7
     7 ALP2       31 GROUP        1 Z    ALP  0     **** ALP Z 8
     8 LYP3       33 GROUP        1 Z    LYP  0     **** LYP Z 9
     9 GLP5       34 GROUP        1 Z    GLP  0     **** GLP Z 11
    10 ZIP7       38 GROUP        1 Z    ZIP  0     **** ZIP Z 12
    11 SEC1       39 GROUP        1 Z    SEC  0     **** SEC Z 14
    12 ALC2       53 GROUP        1 Z    ALC  0     **** ALC Z 15
    13 LYC3       55 GROUP        1 Z    LYC  0     **** LYC Z 16
    14 GLC5       57 GROUP        1 Z    GLC  0     **** GLC Z 18
    15 ZIC7       61 GROUP        1 Z    ZIC  0     **** ZIC Z 19
@<TRIPOS>SET

