1a2b_GSP_1_ligand
  -OEChem-08111718373D

 46 48  0     1  0  0  0  0  0999 V2000
   16.8970   28.3396   29.1562 H   0  0  0  0  0  0  0  0  0  0  0  0
   14.4553   30.6705   31.6212 H   0  0  0  0  0  0  0  0  0  0  0  0
   16.3636   29.8247   30.6595 H   0  0  0  0  0  0  0  0  0  0  0  0
   13.5953   28.4704   32.7848 H   0  0  0  0  0  0  0  0  0  0  0  0
   17.0337   28.2001   32.9452 H   0  0  0  0  0  0  0  0  0  0  0  0
   13.2850   27.6259   30.4776 H   0  0  0  0  0  0  0  0  0  0  0  0
   12.5722   29.0460   30.8544 H   0  0  0  0  0  0  0  0  0  0  0  0
   20.9662   24.0239   31.4387 H   0  0  0  0  0  0  0  0  0  0  0  0
   19.6264   25.0326   34.5082 H   0  0  0  0  0  0  0  0  0  0  0  0
   20.7538   23.9965   33.6985 H   0  0  0  0  0  0  0  0  0  0  0  0
   15.4207   31.2668   33.6202 H   0  0  0  0  0  0  0  0  0  0  0  0
   18.1984   30.1199   32.2580 H   0  0  0  0  0  0  0  0  0  0  0  0
   17.4870   27.6970   29.6450 C   0  0  0  0  0  0  0  0  0  0  0  0
   18.9230   26.2250   30.0890 C   0  0  0  0  0  0  0  0  0  0  0  0
   18.3940   26.6100   31.2890 C   0  0  0  0  0  0  0  0  0  0  0  0
   19.9620   25.1890   30.0600 C   0  0  0  0  0  0  0  0  0  0  0  0
   19.6730   25.2040   32.5010 C   0  0  0  0  0  0  0  0  0  0  0  0
   14.9130   29.9750   32.1750 C   0  0  1  0  0  0  0  0  0  0  0  0
   16.3490   29.7310   31.6550 C   0  0  2  0  0  0  0  0  0  0  0  0
   14.2160   28.6240   32.0160 C   0  0  1  0  0  0  0  0  0  0  0  0
   16.6170   28.2580   32.0380 C   0  0  2  0  0  0  0  0  0  0  0  0
   13.4480   28.5810   30.7250 C   0  0  1  0  0  0  0  0  0  0  0  0
   18.3290   26.9340   29.0420 N   0  0  0  0  0  0  0  0  0  0  0  0
   18.7180   26.1520   32.5220 N   0  0  0  0  0  0  0  0  0  0  0  0
   20.2690   24.7350   31.3480 N   0  0  0  0  0  0  0  0  0  0  0  0
   17.4600   27.5600   31.0280 N   0  0  0  0  0  0  0  0  0  0  0  0
   20.0480   24.7040   33.6630 N   0  0  0  0  0  0  0  0  0  0  0  0
    8.9680   31.1250   26.0820 O   0  0  0  0  0  0  0  0  0  0  0  0
    7.8360   28.8930   25.8210 O   0  0  0  0  0  0  0  0  0  0  0  0
   12.9870   31.1530   28.4690 O   0  5  0  0  0  0  0  0  0  0  0  0
   11.6020   29.5360   25.6480 O   0  5  0  0  0  0  0  0  0  0  0  0
   20.5610   24.6970   29.0910 O   0  0  0  0  0  0  0  0  0  0  0  0
   14.4040   29.5200   27.1490 O   0  0  0  0  0  0  0  0  0  0  0  0
   11.0350   27.2470   26.4810 O   0  0  0  0  0  0  0  0  0  0  0  0
   15.2880   27.6270   32.0370 O   0  0  0  0  0  0  0  0  0  0  0  0
   14.9600   30.3820   33.5500 O   0  0  0  0  0  0  0  0  0  0  0  0
   17.3160   30.5890   32.2230 O   0  0  0  0  0  0  0  0  0  0  0  0
   14.1500   29.2130   29.6710 O   0  0  0  0  0  0  0  0  0  0  0  0
    9.7490   29.0980   27.4300 O   0  0  0  0  0  0  0  0  0  0  0  0
   12.2440   28.7330   28.0130 O   0  0  0  0  0  0  0  0  0  0  0  0
    8.4140   29.9140   26.7600 P   0  0  0  0  0  0  0  0  0  0  0  0
   13.4950   29.7620   28.2830 P   0  0  1  0  0  0  0  0  0  0  0  0
   11.1620   28.6580   26.8020 P   0  0  2  0  0  0  0  0  0  0  0  0
    7.3590   30.3480   28.2900 S   0  0  0  0  0  0  0  0  0  0  0  0
    8.6876   31.9047   26.5466 H   0  0  0  0  0  0  0  0  0  0  0  0
    6.9918   28.6042   26.1472 H   0  0  0  0  0  0  0  0  0  0  0  0
  1 13  1  0  0  0  0
  2 18  1  0  0  0  0
  3 19  1  0  0  0  0
  4 20  1  0  0  0  0
  5 21  1  0  0  0  0
  6 22  1  0  0  0  0
  7 22  1  0  0  0  0
  8 25  1  0  0  0  0
  9 27  1  0  0  0  0
 10 27  1  0  0  0  0
 11 36  1  0  0  0  0
 12 37  1  0  0  0  0
 13 23  2  0  0  0  0
 13 26  1  0  0  0  0
 14 15  2  0  0  0  0
 14 16  1  0  0  0  0
 14 23  1  0  0  0  0
 15 24  1  0  0  0  0
 15 26  1  0  0  0  0
 16 25  1  0  0  0  0
 16 32  2  0  0  0  0
 17 24  2  0  0  0  0
 17 25  1  0  0  0  0
 17 27  1  0  0  0  0
 18 19  1  0  0  0  0
 18 20  1  0  0  0  0
 18 36  1  0  0  0  0
 19 21  1  0  0  0  0
 19 37  1  0  0  0  0
 20 22  1  0  0  0  0
 20 35  1  0  0  0  0
 21 26  1  0  0  0  0
 21 35  1  0  0  0  0
 22 38  1  0  0  0  0
 28 41  1  0  0  0  0
 29 41  1  0  0  0  0
 30 42  1  0  0  0  0
 31 43  1  0  0  0  0
 33 42  2  0  0  0  0
 34 43  2  0  0  0  0
 38 42  1  0  0  0  0
 39 41  1  0  0  0  0
 39 43  1  0  0  0  0
 40 42  1  0  0  0  0
 40 43  1  0  0  0  0
 41 44  2  0  0  0  0
 28 45  1  0  0  0  0
 29 46  1  0  0  0  0
M  CHG  2  31  -1  30  -1
M  END
> <scpdb_id>
1a2b_1

$$$$
