#    Name: 109
#    Modification time : Tue Aug  8 23:33:07 2017

@<TRIPOS>MOLECULE
109
   71     0    15     0     0
SMALL
NO_CHARGES


@<TRIPOS>ATOM
      1 N          32.9340  -31.3730   11.3750 N.am      1 SEL1        0.0000 
      2 N          27.8760  -23.3660   14.2990 N.am      1 SEL1        0.0000 
      3 N          27.9300  -19.3230   12.4720 N.am      1 SEL1        0.0000 
      4 N          28.9400  -20.3690   10.0940 N.am      1 SEL1        0.0000 
      5 N          34.0590  -30.0170   14.0150 N.am      1 SEL1        0.0000 
      6 N          32.0620  -30.1510   15.5170 N.am      1 SEL1        0.0000 
      7 O          25.8080  -25.2630   12.5970 O.2       2 ALL2        0.0000 
      8 O          27.8950  -21.3430   13.4140 O.2       2 ALL2        0.0000 
      9 NZ         30.7800  -30.3800   11.0240 N.4       3 LYL3        0.0000 
     10 NZ         32.9340  -31.3730   11.3750 N.4       3 LYL3        0.0000 
     11 NZ         34.0590  -30.0170   14.0150 N.4       3 LYL3        0.0000 
     12 CA         29.6810  -20.2000    7.8570 C.3       4 GLL5        0.0000 
     13 CA         30.4250  -19.8590    5.5240 C.3       4 GLL5        0.0000 
     14 CA         30.9850  -22.7680    5.3730 C.3       4 GLL5        0.0000 
     15 CA         29.7610  -24.5380    9.8860 C.3       4 GLL5        0.0000 
     16 CA         29.4890  -32.3100   12.5350 C.3       4 GLL5        0.0000 
     17 CA         27.1400  -31.4890    9.6580 C.3       4 GLL5        0.0000 
     18 CA         30.1780  -20.7360    6.7120 C.3       4 GLL5        0.0000 
     19 CA         30.4510  -22.1350    6.6290 C.3       4 GLL5        0.0000 
     20 CA         31.8810  -28.0160   12.5360 C.3       4 GLL5        0.0000 
     21 CZ         24.7972  -27.7733   12.0312 C.ar      5 PHL6        0.0000 
     22 N          33.5180  -29.4550    8.8630 N.am      6 SEP1        0.0000 
     23 N          26.6710  -24.3500   17.2750 N.am      6 SEP1        0.0000 
     24 N          30.1810  -17.4520   11.2260 N.am      6 SEP1        0.0000 
     25 N          28.3740  -17.4280   14.9020 N.am      6 SEP1        0.0000 
     26 N          35.5590  -30.1520   16.9190 N.am      6 SEP1        0.0000 
     27 N          36.2900  -30.3390   12.0120 N.am      6 SEP1        0.0000 
     28 N          35.1850  -28.3360   11.7910 N.am      6 SEP1        0.0000 
     29 N          33.2180  -28.6330   18.1430 N.am      6 SEP1        0.0000 
     30 N          30.4150  -29.3810   17.6820 N.am      6 SEP1        0.0000 
     31 O          24.1160  -23.0700   12.4500 O.2       7 ALP2        0.0000 
     32 O          26.9250  -19.9850   16.1030 O.2       7 ALP2        0.0000 
     33 NZ         33.5180  -29.4550    8.8630 N.4       8 LYP3        0.0000 
     34 NZ         36.2970  -29.0580   11.6790 N.4       8 LYP3        0.0000 
     35 CA         31.8770  -16.4200    7.9990 C.3       9 GLP5        0.0000 
     36 CA         32.3370  -17.2680    4.3210 C.3       9 GLP5        0.0000 
     37 CA         27.4650  -18.1800    3.2630 C.3       9 GLP5        0.0000 
     38 CA         30.3190  -26.7420    4.4740 C.3       9 GLP5        0.0000 
     39 CA         26.7540  -26.2710    8.6420 C.3       9 GLP5        0.0000 
     40 CA         28.0300  -32.9200   15.4560 C.3       9 GLP5        0.0000 
     41 CA         25.2960  -28.2050    7.9770 C.3       9 GLP5        0.0000 
     42 CA         33.6470  -21.5200    8.1430 C.3       9 GLP5        0.0000 
     43 CA         35.0870  -26.9110   11.4710 C.3       9 GLP5        0.0000 
     44 CZ         24.1558  -27.5328    8.3702 C.ar     10 PHP6        0.0000 
     45 N          33.2260  -30.4140   10.1190 N.am     11 SEC1        0.0000 
     46 N          27.2735  -23.8580   15.7870 N.am     11 SEC1        0.0000 
     47 N          29.0555  -18.3875   11.8490 N.am     11 SEC1        0.0000 
     48 N          28.1520  -18.3755   13.6870 N.am     11 SEC1        0.0000 
     49 N          29.5605  -18.9105   10.6600 N.am     11 SEC1        0.0000 
     50 N          34.8090  -30.0845   15.4670 N.am     11 SEC1        0.0000 
     51 N          35.1745  -30.1780   13.0135 N.am     11 SEC1        0.0000 
     52 N          34.6220  -29.1765   12.9030 N.am     11 SEC1        0.0000 
     53 N          32.6400  -29.3920   16.8300 N.am     11 SEC1        0.0000 
     54 N          31.2385  -29.7660   16.5995 N.am     11 SEC1        0.0000 
     55 O          24.9620  -24.1665   12.5235 O.2      12 ALC2        0.0000 
     56 O          27.4100  -20.6640   14.7585 O.2      12 ALC2        0.0000 
     57 NZ         32.1490  -29.9175    9.9435 N.4      13 LYC3        0.0000 
     58 NZ         33.2260  -30.4140   10.1190 N.4      13 LYC3        0.0000 
     59 NZ         35.1780  -29.5375   12.8470 N.4      13 LYC3        0.0000 
     60 CA         30.7790  -18.3100    7.9280 C.3      14 GLC5        0.0000 
     61 CA         31.3810  -18.5635    4.9225 C.3      14 GLC5        0.0000 
     62 CA         28.9450  -19.0195    4.3935 C.3      14 GLC5        0.0000 
     63 CA         30.6520  -24.7550    4.9235 C.3      14 GLC5        0.0000 
     64 CA         28.2575  -25.4045    9.2640 C.3      14 GLC5        0.0000 
     65 CA         28.4825  -32.6532   13.7205 C.3      14 GLC5        0.0000 
     66 CA         26.0527  -29.7470    9.1412 C.3      14 GLC5        0.0000 
     67 CA         31.9121  -20.8418    7.2736 C.3      14 GLC5        0.0000 
     68 CA         32.1825  -21.9857    7.0720 C.3      14 GLC5        0.0000 
     69 CA         31.8329  -21.9826    8.0881 C.3      14 GLC5        0.0000 
     70 CA         33.3000  -27.0787   11.8351 C.3      14 GLC5        0.0000 
     71 CZ         24.4765  -27.6531   10.2007 C.ar     15 PHC6        0.0000 
@<TRIPOS>BOND
@<TRIPOS>SUBSTRUCTURE
     1 SEL1        1 GROUP        1 Z    SEL  0     ROOT SEL Z 0
     2 ALL2        7 GROUP        1 Z    ALL  0     **** ALL Z 1
     3 LYL3        9 GROUP        1 Z    LYL  0     **** LYL Z 2
     4 GLL5       12 GROUP        1 Z    GLL  0     **** GLL Z 4
     5 PHL6       21 GROUP        1 Z    PHL  0     **** PHL Z 6
     6 SEP1       22 GROUP        1 Z    SEP  0     **** SEP Z 7
     7 ALP2       31 GROUP        1 Z    ALP  0     **** ALP Z 8
     8 LYP3       33 GROUP        1 Z    LYP  0     **** LYP Z 9
     9 GLP5       35 GROUP        1 Z    GLP  0     **** GLP Z 11
    10 PHP6       44 GROUP        1 Z    PHP  0     **** PHP Z 13
    11 SEC1       45 GROUP        1 Z    SEC  0     **** SEC Z 14
    12 ALC2       55 GROUP        1 Z    ALC  0     **** ALC Z 15
    13 LYC3       57 GROUP        1 Z    LYC  0     **** LYC Z 16
    14 GLC5       60 GROUP        1 Z    GLC  0     **** GLC Z 18
    15 PHC6       71 GROUP        1 Z    PHC  0     **** PHC Z 20
@<TRIPOS>SET

