@<TRIPOS>MOLECULE
1a8p_FAD_1_ligand
   84    89     1     0     0
SMALL
NO_CHARGES


@<TRIPOS>ATOM
     1 PA          31.7150   -31.1250    11.8850 P.3          1 FAD259   0.0000
     2 O1A         30.7800   -30.3800    11.0240 O.co2        1 FAD259   0.0000
     3 O2A         32.9340   -31.3730    11.3750 O.co2        1 FAD259  -1.0000
     4 O5B         30.8420   -32.3670    11.9590 O.3          1 FAD259   0.0000
     5 C5B         29.4890   -32.3100    12.5350 C.3          1 FAD259   0.0000
     6 C4B         28.3810   -32.4630    11.4350 C.3          1 FAD259   0.0000
     7 O4B         27.2270   -31.7560    12.0210 O.3          1 FAD259   0.0000
     8 C3B         28.5650   -31.8230    10.0510 C.3          1 FAD259   0.0000
     9 O3B         29.2770   -32.5590     9.1190 O.3          1 FAD259   0.0000
    10 C2B         27.1400   -31.4890     9.6580 C.3          1 FAD259   0.0000
    11 O2B         26.4830   -32.5790     9.0880 O.3          1 FAD259   0.0000
    12 C1B         26.4790   -31.0890    10.9530 C.3          1 FAD259   0.0000
    13 N9A         26.5820   -29.6870    11.3280 N.pl3        1 FAD259   0.0000
    14 C8A         27.7280   -28.9580    11.4030 C.2          1 FAD259   0.0000
    15 N7A         27.5160   -27.7060    11.7640 N.2          1 FAD259   0.0000
    16 C5A         26.1770   -27.6000    11.9320 C.ar         1 FAD259   0.0000
    17 C6A         25.3450   -26.4610    12.3270 C.ar         1 FAD259   0.0000
    18 N6A         25.8080   -25.2630    12.5970 N.pl3        1 FAD259   0.0000
    19 N1A         24.0170   -26.7360    12.3930 N.ar         1 FAD259   0.0000
    20 C2A         23.5130   -27.9610    12.1180 C.ar         1 FAD259   0.0000
    21 N3A         24.1950   -29.0550    11.7480 N.ar         1 FAD259   0.0000
    22 C4A         25.5360   -28.8270    11.6690 C.ar         1 FAD259   0.0000
    23 N1          28.6470   -23.2970    12.2450 N.2          1 FAD259   0.0000
    24 C2          28.1480   -22.7320    13.3290 C.2          1 FAD259   0.0000
    25 O2          27.8760   -23.3660    14.2990 O.2          1 FAD259   0.0000
    26 N3          27.8950   -21.3430    13.4140 N.pl3        1 FAD259   0.0000
    27 C4          28.1490   -20.5140    12.3580 C.2          1 FAD259   0.0000
    28 O4          27.9300   -19.3230    12.4720 O.2          1 FAD259   0.0000
    29 C4X         28.6840   -21.1270    11.1570 C.2          1 FAD259   0.0000
    30 N5          28.9400   -20.3690    10.0940 N.2          1 FAD259   0.0000
    31 C5X         29.4370   -20.9890     8.9760 C.ar         1 FAD259   0.0000
    32 C6          29.6810   -20.2000     7.8570 C.ar         1 FAD259   0.0000
    33 C7          30.1780   -20.7360     6.7120 C.ar         1 FAD259   0.0000
    34 C7M         30.4250   -19.8590     5.5240 C.3          1 FAD259   0.0000
    35 C8          30.4510   -22.1350     6.6290 C.ar         1 FAD259   0.0000
    36 C8M         30.9850   -22.7680     5.3730 C.3          1 FAD259   0.0000
    37 C9          30.2080   -22.9340     7.7300 C.ar         1 FAD259   0.0000
    38 C9A         29.7080   -22.3560     8.8870 C.ar         1 FAD259   0.0000
    39 N10         29.4430   -23.1180    10.0160 N.pl3        1 FAD259   0.0000
    40 C10         28.9300   -22.5510    11.1460 C.2          1 FAD259   0.0000
    41 C1'         29.7610   -24.5380     9.8860 C.3          1 FAD259   0.0000
    42 C2'         30.4210   -24.9290    11.1930 C.3          1 FAD259   0.0000
    43 O2'         31.5390   -24.0820    11.4030 O.3          1 FAD259   0.0000
    44 C3'         30.8780   -26.3300    11.1830 C.3          1 FAD259   0.0000
    45 O3'         29.8250   -27.2210    10.9210 O.3          1 FAD259   0.0000
    46 C4'         31.4120   -26.6240    12.5420 C.3          1 FAD259   0.0000
    47 O4'         32.4720   -25.7360    12.9370 O.3          1 FAD259   0.0000
    48 C5'         31.8810   -28.0160    12.5360 C.3          1 FAD259   0.0000
    49 O5'         32.4270   -28.3570    13.9830 O.3          1 FAD259   0.0000
    50 P           32.5490   -29.7910    14.2790 P.3          1 FAD259   0.0000
    51 O1P         34.0590   -30.0170    14.0150 O.co2        1 FAD259   0.0000
    52 O2P         32.0620   -30.1510    15.5170 O.co2        1 FAD259  -1.0000
    53 O3P         31.6610   -30.3930    13.2900 O.3          1 FAD259   0.0000
    54 H5B1        29.3696   -31.4299    12.9946 H            1 FAD259   0.0000
    55 H5B2        29.3890   -33.0498    13.2004 H            1 FAD259   0.0000
    56 H4B         28.1552   -33.4309    11.3248 H            1 FAD259   0.0000
    57 H3B         29.0496   -30.9583    10.1831 H            1 FAD259   0.0000
    58 H5          30.1994   -32.7316     9.4647 H            1 FAD259   0.0000
    59 H2B         27.1348   -30.7179     9.0213 H            1 FAD259   0.0000
    60 H7          25.5496   -32.3155     8.8445 H            1 FAD259   0.0000
    61 H1B         25.5231   -31.3826    10.9614 H            1 FAD259   0.0000
    62 H8A         28.6347   -29.3308    11.2057 H            1 FAD259   0.0000
    63 H6A1        25.1791   -24.5317    12.8609 H            1 FAD259   0.0000
    64 H6A2        26.7897   -25.0815    12.5388 H            1 FAD259   0.0000
    65 H2A         22.5215   -28.0621    12.1997 H            1 FAD259   0.0000
    66 H13         27.5242   -20.9615    14.2607 H            1 FAD259   0.0000
    67 H14         29.4870   -19.2198     7.8960 H            1 FAD259   0.0000
    68 H7M1        30.7884   -20.4100     4.7728 H            1 FAD259   0.0000
    69 H7M2        29.5661   -19.4331     5.2398 H            1 FAD259   0.0000
    70 H7M3        31.0855   -19.1482     5.7660 H            1 FAD259   0.0000
    71 H8M1        31.1073   -23.7495     5.5204 H            1 FAD259   0.0000
    72 H8M2        30.3380   -22.6213     4.6247 H            1 FAD259   0.0000
    73 H8M3        31.8647   -22.3539     5.1390 H            1 FAD259   0.0000
    74 H21         30.3904   -23.9165     7.6928 H            1 FAD259   0.0000
    75 H1'1        30.3870   -24.6869     9.1206 H            1 FAD259   0.0000
    76 H1'2        28.9270   -25.0708     9.7430 H            1 FAD259   0.0000
    77 H2'         29.7688   -24.8023    11.9404 H            1 FAD259   0.0000
    78 H25         31.2332   -23.1309    11.4460 H            1 FAD259   0.0000
    79 H3'         31.6001   -26.4472    10.5013 H            1 FAD259   0.0000
    80 H27         29.1236   -27.1250    11.6273 H            1 FAD259   0.0000
    81 H4'         30.6654   -26.5423    13.2022 H            1 FAD259   0.0000
    82 H29         32.3399   -24.8452    12.5023 H            1 FAD259   0.0000
    83 H5'1        32.6129   -28.1242    11.8633 H            1 FAD259   0.0000
    84 H5'2        31.1240   -28.6278    12.3064 H            1 FAD259   0.0000
@<TRIPOS>BOND
     1    1    2      ar
     2    1    3      ar
     3    1    4       1
     4    1   53       1
     5    4    5       1
     6    5    6       1
     7    6    7       1
     8    6    8       1
     9    7   12       1
    10    8    9       1
    11    8   10       1
    12   10   11       1
    13   10   12       1
    14   12   13       1
    15   13   14       1
    16   13   22       1
    17   14   15       2
    18   15   16       1
    19   16   17      ar
    20   16   22      ar
    21   17   18       1
    22   17   19      ar
    23   19   20      ar
    24   20   21      ar
    25   21   22      ar
    26   23   24       1
    27   23   40       2
    28   24   25       2
    29   24   26       1
    30   26   27       1
    31   27   28       2
    32   27   29       1
    33   29   30       2
    34   29   40       1
    35   30   31       1
    36   31   32      ar
    37   31   38      ar
    38   32   33      ar
    39   33   34       1
    40   33   35      ar
    41   35   36       1
    42   35   37      ar
    43   37   38      ar
    44   38   39       1
    45   39   40       1
    46   39   41       1
    47   41   42       1
    48   42   43       1
    49   42   44       1
    50   44   45       1
    51   44   46       1
    52   46   47       1
    53   46   48       1
    54   48   49       1
    55   49   50       1
    56   50   51      ar
    57   50   52      ar
    58   50   53       1
    59   48   84       1
    60    5   54       1
    61    5   55       1
    62    6   56       1
    63    8   57       1
    64    9   58       1
    65   10   59       1
    66   11   60       1
    67   12   61       1
    68   14   62       1
    69   18   63       1
    70   18   64       1
    71   20   65       1
    72   26   66       1
    73   32   67       1
    74   34   68       1
    75   34   69       1
    76   34   70       1
    77   36   71       1
    78   36   72       1
    79   36   73       1
    80   37   74       1
    81   41   75       1
    82   41   76       1
    83   42   77       1
    84   43   78       1
    85   44   79       1
    86   45   80       1
    87   46   81       1
    88   47   82       1
    89   48   83       1
@<TRIPOS>SUBSTRUCTURE
     1 FAD259      1 GROUP             4 A     FAD     0 **** FAD A 259
