1a8p_FAD_1_ligand
  -OEChem-08111718373D

 84 89  0     1  0  0  0  0  0999 V2000
   29.4870  -19.2198    7.8960 H   0  0  0  0  0  0  0  0  0  0  0  0
   30.3904  -23.9165    7.6928 H   0  0  0  0  0  0  0  0  0  0  0  0
   22.5215  -28.0621   12.1997 H   0  0  0  0  0  0  0  0  0  0  0  0
   28.6347  -29.3308   11.2057 H   0  0  0  0  0  0  0  0  0  0  0  0
   29.0496  -30.9583   10.1831 H   0  0  0  0  0  0  0  0  0  0  0  0
   27.1348  -30.7179    9.0213 H   0  0  0  0  0  0  0  0  0  0  0  0
   28.1552  -33.4309   11.3248 H   0  0  0  0  0  0  0  0  0  0  0  0
   25.5231  -31.3826   10.9614 H   0  0  0  0  0  0  0  0  0  0  0  0
   30.7884  -20.4100    4.7728 H   0  0  0  0  0  0  0  0  0  0  0  0
   29.5661  -19.4331    5.2398 H   0  0  0  0  0  0  0  0  0  0  0  0
   31.0855  -19.1482    5.7660 H   0  0  0  0  0  0  0  0  0  0  0  0
   31.1073  -23.7495    5.5204 H   0  0  0  0  0  0  0  0  0  0  0  0
   30.3380  -22.6213    4.6247 H   0  0  0  0  0  0  0  0  0  0  0  0
   31.8647  -22.3539    5.1390 H   0  0  0  0  0  0  0  0  0  0  0  0
   29.3696  -31.4299   12.9946 H   0  0  0  0  0  0  0  0  0  0  0  0
   29.3890  -33.0498   13.2004 H   0  0  0  0  0  0  0  0  0  0  0  0
   30.3870  -24.6869    9.1206 H   0  0  0  0  0  0  0  0  0  0  0  0
   28.9270  -25.0708    9.7430 H   0  0  0  0  0  0  0  0  0  0  0  0
   32.6129  -28.1242   11.8633 H   0  0  0  0  0  0  0  0  0  0  0  0
   31.1240  -28.6278   12.3064 H   0  0  0  0  0  0  0  0  0  0  0  0
   29.7688  -24.8023   11.9404 H   0  0  0  0  0  0  0  0  0  0  0  0
   30.6654  -26.5423   13.2022 H   0  0  0  0  0  0  0  0  0  0  0  0
   31.6001  -26.4472   10.5013 H   0  0  0  0  0  0  0  0  0  0  0  0
   27.5242  -20.9615   14.2607 H   0  0  0  0  0  0  0  0  0  0  0  0
   25.1791  -24.5317   12.8609 H   0  0  0  0  0  0  0  0  0  0  0  0
   26.7897  -25.0815   12.5388 H   0  0  0  0  0  0  0  0  0  0  0  0
   30.1994  -32.7316    9.4647 H   0  0  0  0  0  0  0  0  0  0  0  0
   25.5496  -32.3155    8.8445 H   0  0  0  0  0  0  0  0  0  0  0  0
   31.2332  -23.1309   11.4460 H   0  0  0  0  0  0  0  0  0  0  0  0
   32.3399  -24.8452   12.5023 H   0  0  0  0  0  0  0  0  0  0  0  0
   29.1236  -27.1250   11.6273 H   0  0  0  0  0  0  0  0  0  0  0  0
   29.6810  -20.2000    7.8570 C   0  0  0  0  0  0  0  0  0  0  0  0
   30.2080  -22.9340    7.7300 C   0  0  0  0  0  0  0  0  0  0  0  0
   23.5130  -27.9610   12.1180 C   0  0  0  0  0  0  0  0  0  0  0  0
   27.7280  -28.9580   11.4030 C   0  0  0  0  0  0  0  0  0  0  0  0
   30.1780  -20.7360    6.7120 C   0  0  0  0  0  0  0  0  0  0  0  0
   30.4510  -22.1350    6.6290 C   0  0  0  0  0  0  0  0  0  0  0  0
   29.4370  -20.9890    8.9760 C   0  0  0  0  0  0  0  0  0  0  0  0
   26.1770  -27.6000   11.9320 C   0  0  0  0  0  0  0  0  0  0  0  0
   29.7080  -22.3560    8.8870 C   0  0  0  0  0  0  0  0  0  0  0  0
   28.6840  -21.1270   11.1570 C   0  0  0  0  0  0  0  0  0  0  0  0
   25.5360  -28.8270   11.6690 C   0  0  0  0  0  0  0  0  0  0  0  0
   25.3450  -26.4610   12.3270 C   0  0  0  0  0  0  0  0  0  0  0  0
   28.1490  -20.5140   12.3580 C   0  0  0  0  0  0  0  0  0  0  0  0
   28.9300  -22.5510   11.1460 C   0  0  0  0  0  0  0  0  0  0  0  0
   28.1480  -22.7320   13.3290 C   0  0  0  0  0  0  0  0  0  0  0  0
   28.5650  -31.8230   10.0510 C   0  0  1  0  0  0  0  0  0  0  0  0
   27.1400  -31.4890    9.6580 C   0  0  2  0  0  0  0  0  0  0  0  0
   28.3810  -32.4630   11.4350 C   0  0  1  0  0  0  0  0  0  0  0  0
   26.4790  -31.0890   10.9530 C   0  0  2  0  0  0  0  0  0  0  0  0
   30.4250  -19.8590    5.5240 C   0  0  0  0  0  0  0  0  0  0  0  0
   30.9850  -22.7680    5.3730 C   0  0  0  0  0  0  0  0  0  0  0  0
   29.4890  -32.3100   12.5350 C   0  0  1  0  0  0  0  0  0  0  0  0
   29.7610  -24.5380    9.8860 C   0  0  1  0  0  0  0  0  0  0  0  0
   31.8810  -28.0160   12.5360 C   0  0  2  0  0  0  0  0  0  0  0  0
   30.4210  -24.9290   11.1930 C   0  0  1  0  0  0  0  0  0  0  0  0
   31.4120  -26.6240   12.5420 C   0  0  2  0  0  0  0  0  0  0  0  0
   30.8780  -26.3300   11.1830 C   0  0  1  0  0  0  0  0  0  0  0  0
   24.1950  -29.0550   11.7480 N   0  0  0  0  0  0  0  0  0  0  0  0
   24.0170  -26.7360   12.3930 N   0  0  0  0  0  0  0  0  0  0  0  0
   27.5160  -27.7060   11.7640 N   0  0  0  0  0  0  0  0  0  0  0  0
   28.9400  -20.3690   10.0940 N   0  0  0  0  0  0  0  0  0  0  0  0
   28.6470  -23.2970   12.2450 N   0  0  0  0  0  0  0  0  0  0  0  0
   27.8950  -21.3430   13.4140 N   0  0  0  0  0  0  0  0  0  0  0  0
   26.5820  -29.6870   11.3280 N   0  0  0  0  0  0  0  0  0  0  0  0
   29.4430  -23.1180   10.0160 N   0  0  0  0  0  0  0  0  0  0  0  0
   25.8080  -25.2630   12.5970 N   0  0  0  0  0  0  0  0  0  0  0  0
   32.9340  -31.3730   11.3750 O   0  5  0  0  0  0  0  0  0  0  0  0
   32.0620  -30.1510   15.5170 O   0  5  0  0  0  0  0  0  0  0  0  0
   27.9300  -19.3230   12.4720 O   0  0  0  0  0  0  0  0  0  0  0  0
   27.8760  -23.3660   14.2990 O   0  0  0  0  0  0  0  0  0  0  0  0
   30.7800  -30.3800   11.0240 O   0  0  0  0  0  0  0  0  0  0  0  0
   34.0590  -30.0170   14.0150 O   0  0  0  0  0  0  0  0  0  0  0  0
   27.2270  -31.7560   12.0210 O   0  0  0  0  0  0  0  0  0  0  0  0
   29.2770  -32.5590    9.1190 O   0  0  0  0  0  0  0  0  0  0  0  0
   26.4830  -32.5790    9.0880 O   0  0  0  0  0  0  0  0  0  0  0  0
   31.5390  -24.0820   11.4030 O   0  0  0  0  0  0  0  0  0  0  0  0
   32.4720  -25.7360   12.9370 O   0  0  0  0  0  0  0  0  0  0  0  0
   29.8250  -27.2210   10.9210 O   0  0  0  0  0  0  0  0  0  0  0  0
   30.8420  -32.3670   11.9590 O   0  0  0  0  0  0  0  0  0  0  0  0
   32.4270  -28.3570   13.9830 O   0  0  0  0  0  0  0  0  0  0  0  0
   31.6610  -30.3930   13.2900 O   0  0  0  0  0  0  0  0  0  0  0  0
   31.7150  -31.1250   11.8850 P   0  0  1  0  0  0  0  0  0  0  0  0
   32.5490  -29.7910   14.2790 P   0  0  2  0  0  0  0  0  0  0  0  0
  1 32  1  0  0  0  0
  2 33  1  0  0  0  0
  3 34  1  0  0  0  0
  4 35  1  0  0  0  0
  5 47  1  0  0  0  0
  6 48  1  0  0  0  0
  7 49  1  0  0  0  0
  8 50  1  0  0  0  0
  9 51  1  0  0  0  0
 10 51  1  0  0  0  0
 11 51  1  0  0  0  0
 12 52  1  0  0  0  0
 13 52  1  0  0  0  0
 14 52  1  0  0  0  0
 15 53  1  0  0  0  0
 16 53  1  0  0  0  0
 17 54  1  0  0  0  0
 18 54  1  0  0  0  0
 19 55  1  0  0  0  0
 20 55  1  0  0  0  0
 21 56  1  0  0  0  0
 22 57  1  0  0  0  0
 23 58  1  0  0  0  0
 24 64  1  0  0  0  0
 25 67  1  0  0  0  0
 26 67  1  0  0  0  0
 27 75  1  0  0  0  0
 28 76  1  0  0  0  0
 29 77  1  0  0  0  0
 30 78  1  0  0  0  0
 31 79  1  0  0  0  0
 32 36  1  0  0  0  0
 32 38  2  0  0  0  0
 33 37  1  0  0  0  0
 33 40  2  0  0  0  0
 34 59  1  0  0  0  0
 34 60  2  0  0  0  0
 35 61  2  0  0  0  0
 35 65  1  0  0  0  0
 36 37  2  0  0  0  0
 36 51  1  0  0  0  0
 37 52  1  0  0  0  0
 38 40  1  0  0  0  0
 38 62  1  0  0  0  0
 39 42  1  0  0  0  0
 39 43  2  0  0  0  0
 39 61  1  0  0  0  0
 40 66  1  0  0  0  0
 41 44  1  0  0  0  0
 41 45  1  0  0  0  0
 41 62  2  0  0  0  0
 42 59  2  0  0  0  0
 42 65  1  0  0  0  0
 43 60  1  0  0  0  0
 43 67  1  0  0  0  0
 44 64  1  0  0  0  0
 44 70  2  0  0  0  0
 45 63  2  0  0  0  0
 45 66  1  0  0  0  0
 46 63  1  0  0  0  0
 46 64  1  0  0  0  0
 46 71  2  0  0  0  0
 47 48  1  0  0  0  0
 47 49  1  0  0  0  0
 47 75  1  0  0  0  0
 48 50  1  0  0  0  0
 48 76  1  0  0  0  0
 49 53  1  0  0  0  0
 49 74  1  0  0  0  0
 50 65  1  0  0  0  0
 50 74  1  0  0  0  0
 53 80  1  0  0  0  0
 54 56  1  0  0  0  0
 54 66  1  0  0  0  0
 55 57  1  0  0  0  0
 55 81  1  0  0  0  0
 56 58  1  0  0  0  0
 56 77  1  0  0  0  0
 57 58  1  0  0  0  0
 57 78  1  0  0  0  0
 58 79  1  0  0  0  0
 68 83  1  0  0  0  0
 69 84  1  0  0  0  0
 72 83  2  0  0  0  0
 73 84  2  0  0  0  0
 80 83  1  0  0  0  0
 81 84  1  0  0  0  0
 82 83  1  0  0  0  0
 82 84  1  0  0  0  0
M  CHG  2  68  -1  69  -1
M  END
> <scpdb_id>
1a8p_1

$$$$
