1a4i_NDP_1_ligand
  -OEChem-08111718373D

 73 77  0     1  0  0  0  0  0999 V2000
    0.2472   50.9978   22.0703 H   0  0  0  0  0  0  0  0  0  0  0  0
    1.4829   52.8478   21.3602 H   0  0  0  0  0  0  0  0  0  0  0  0
   -1.1685   51.2039   23.9540 H   0  0  0  0  0  0  0  0  0  0  0  0
   -0.1339   55.1885   24.3910 H   0  0  0  0  0  0  0  0  0  0  0  0
   -4.8022   45.1062   36.0094 H   0  0  0  0  0  0  0  0  0  0  0  0
   -8.0982   47.1462   31.0360 H   0  0  0  0  0  0  0  0  0  0  0  0
   -5.9667   44.4846   28.1482 H   0  0  0  0  0  0  0  0  0  0  0  0
   -4.5525   52.3305   26.2218 H   0  0  0  0  0  0  0  0  0  0  0  0
   -7.2260   45.0501   29.9207 H   0  0  0  0  0  0  0  0  0  0  0  0
   -3.2325   52.4033   24.3307 H   0  0  0  0  0  0  0  0  0  0  0  0
   -3.8333   45.8228   28.8884 H   0  0  0  0  0  0  0  0  0  0  0  0
   -2.5799   52.2799   28.0235 H   0  0  0  0  0  0  0  0  0  0  0  0
   -5.0002   44.9971   31.6239 H   0  0  0  0  0  0  0  0  0  0  0  0
   -1.5181   54.2628   25.9111 H   0  0  0  0  0  0  0  0  0  0  0  0
   -6.2449   47.2974   28.3413 H   0  0  0  0  0  0  0  0  0  0  0  0
   -4.7171   47.8506   28.1788 H   0  0  0  0  0  0  0  0  0  0  0  0
   -2.2050   49.9730   27.2735 H   0  0  0  0  0  0  0  0  0  0  0  0
   -3.8094   50.2756   27.3088 H   0  0  0  0  0  0  0  0  0  0  0  0
   -8.4899   47.3622   37.0918 H   0  0  0  0  0  0  0  0  0  0  0  0
   -9.2189   47.7749   35.5759 H   0  0  0  0  0  0  0  0  0  0  0  0
    2.4151   56.1714   20.6730 H   0  0  0  0  0  0  0  0  0  0  0  0
    1.8707   54.5424   20.4498 H   0  0  0  0  0  0  0  0  0  0  0  0
   -4.9365   42.6818   29.1763 H   0  0  0  0  0  0  0  0  0  0  0  0
   -4.9393   54.3258   26.9208 H   0  0  0  0  0  0  0  0  0  0  0  0
   -3.8903   54.9738   25.2745 H   0  0  0  0  0  0  0  0  0  0  0  0
    0.1790   51.8670   22.5600 C   0  0  0  0  0  0  0  0  0  0  0  0
    0.8870   52.9390   22.1580 C   0  0  0  0  0  0  0  0  0  0  0  0
   -0.6320   51.9900   23.6470 C   0  0  0  0  0  0  0  0  0  0  0  0
   -0.0340   54.3110   23.9220 C   0  0  0  0  0  0  0  0  0  0  0  0
   -5.5150   45.5410   35.4590 C   0  0  0  0  0  0  0  0  0  0  0  0
   -7.7250   46.9020   31.9310 C   0  0  0  0  0  0  0  0  0  0  0  0
    0.8250   54.1550   22.7990 C   0  0  0  0  0  0  0  0  0  0  0  0
   -7.4440   46.7300   34.0570 C   0  0  0  0  0  0  0  0  0  0  0  0
   -6.4050   46.0750   33.4970 C   0  0  0  0  0  0  0  0  0  0  0  0
   -7.4720   46.7570   35.4480 C   0  0  0  0  0  0  0  0  0  0  0  0
    1.5750   55.3060   22.3180 C   0  0  0  0  0  0  0  0  0  0  0  0
   -5.4630   44.6160   29.0020 C   0  0  1  0  0  0  0  0  0  0  0  0
   -3.7150   52.8670   26.3260 C   0  0  1  0  0  0  0  0  0  0  0  0
   -6.3700   44.6120   30.1950 C   0  0  2  0  0  0  0  0  0  0  0  0
   -3.1340   53.1600   24.9770 C   0  0  2  0  0  0  0  0  0  0  0  0
   -4.8090   45.9540   29.0640 C   0  0  1  0  0  0  0  0  0  0  0  0
   -2.6530   52.0300   27.0580 C   0  0  1  0  0  0  0  0  0  0  0  0
   -5.6710   45.5440   31.1230 C   0  0  2  0  0  0  0  0  0  0  0  0
   -1.6460   53.3780   25.4630 C   0  0  2  0  0  0  0  0  0  0  0  0
   -5.3020   47.0410   28.1290 C   0  0  1  0  0  0  0  0  0  0  0  0
   -2.9430   50.5140   26.8700 C   0  0  1  0  0  0  0  0  0  0  0  0
   -5.3880   45.4590   34.1510 N   0  0  0  0  0  0  0  0  0  0  0  0
   -6.5010   46.1470   36.1220 N   0  0  0  0  0  0  0  0  0  0  0  0
   -8.2600   47.2410   33.0830 N   0  0  0  0  0  0  0  0  0  0  0  0
   -6.5560   46.1490   32.1320 N   0  0  0  0  0  0  0  0  0  0  0  0
   -0.7230   53.1850   24.3300 N   0  3  0  0  0  0  0  0  0  0  0  0
   -8.4770   47.3470   36.0920 N   0  0  0  0  0  0  0  0  0  0  0  0
    1.9891   55.3431   21.0370 N   0  0  0  0  0  0  0  0  0  0  0  0
   -6.3700   41.5830   29.1220 O   0  5  0  0  0  0  0  0  0  0  0  0
   -8.5710   42.7110   29.2500 O   0  5  0  0  0  0  0  0  0  0  0  0
   -7.0050   47.9580   25.9070 O   0  5  0  0  0  0  0  0  0  0  0  0
   -2.2050   47.9300   25.5840 O   0  5  0  0  0  0  0  0  0  0  0  0
    1.8081   56.3097   23.0163 O   0  0  0  0  0  0  0  0  0  0  0  0
   -7.8020   41.2980   31.1280 O   0  0  0  0  0  0  0  0  0  0  0  0
   -5.6060   46.3770   24.4310 O   0  0  0  0  0  0  0  0  0  0  0  0
   -3.4020   48.6660   23.4050 O   0  0  0  0  0  0  0  0  0  0  0  0
   -4.9450   46.4990   30.3960 O   0  0  0  0  0  0  0  0  0  0  0  0
   -1.4580   52.2910   26.3530 O   0  0  0  0  0  0  0  0  0  0  0  0
   -4.4870   43.5740   29.2200 O   0  0  0  0  0  0  0  0  0  0  0  0
   -3.9920   54.0460   27.0770 O   0  0  0  0  0  0  0  0  0  0  0  0
   -3.6750   54.3790   24.5000 O   0  0  0  0  0  0  0  0  0  0  0  0
   -6.7040   43.3560   30.7840 O   0  0  0  0  0  0  0  0  0  0  0  0
   -5.2150   46.4240   26.8470 O   0  0  0  0  0  0  0  0  0  0  0  0
   -3.0240   50.2530   25.4260 O   0  0  0  0  0  0  0  0  0  0  0  0
   -4.6410   48.4370   25.5110 O   0  0  0  0  0  0  0  0  0  0  0  0
   -7.3690   42.1870   30.0360 P   0  0  0  0  0  0  0  0  0  0  0  0
   -5.7120   47.2840   25.5380 P   0  0  2  0  0  0  0  0  0  0  0  0
   -3.2150   48.7610   24.8610 P   0  0  2  0  0  0  0  0  0  0  0  0
  1 26  1  0  0  0  0
  2 27  1  0  0  0  0
  3 28  1  0  0  0  0
  4 29  1  0  0  0  0
  5 30  1  0  0  0  0
  6 31  1  0  0  0  0
  7 37  1  0  0  0  0
  8 38  1  0  0  0  0
  9 39  1  0  0  0  0
 10 40  1  0  0  0  0
 11 41  1  0  0  0  0
 12 42  1  0  0  0  0
 13 43  1  0  0  0  0
 14 44  1  0  0  0  0
 15 45  1  0  0  0  0
 16 45  1  0  0  0  0
 17 46  1  0  0  0  0
 18 46  1  0  0  0  0
 19 52  1  0  0  0  0
 20 52  1  0  0  0  0
 21 53  1  0  0  0  0
 22 53  1  0  0  0  0
 23 64  1  0  0  0  0
 24 65  1  0  0  0  0
 25 66  1  0  0  0  0
 26 27  1  0  0  0  0
 26 28  2  0  0  0  0
 27 32  2  0  0  0  0
 28 51  1  0  0  0  0
 29 32  1  0  0  0  0
 29 51  2  0  0  0  0
 30 47  1  0  0  0  0
 30 48  2  0  0  0  0
 31 49  2  0  0  0  0
 31 50  1  0  0  0  0
 32 36  1  0  0  0  0
 33 34  1  0  0  0  0
 33 35  2  0  0  0  0
 33 49  1  0  0  0  0
 34 47  2  0  0  0  0
 34 50  1  0  0  0  0
 35 48  1  0  0  0  0
 35 52  1  0  0  0  0
 36 53  1  0  0  0  0
 36 58  2  0  0  0  0
 37 39  1  0  0  0  0
 37 41  1  0  0  0  0
 37 64  1  0  0  0  0
 38 40  1  0  0  0  0
 38 42  1  0  0  0  0
 38 65  1  0  0  0  0
 39 43  1  0  0  0  0
 39 67  1  0  0  0  0
 40 44  1  0  0  0  0
 40 66  1  0  0  0  0
 41 45  1  0  0  0  0
 41 62  1  0  0  0  0
 42 46  1  0  0  0  0
 42 63  1  0  0  0  0
 43 50  1  0  0  0  0
 43 62  1  0  0  0  0
 44 51  1  0  0  0  0
 44 63  1  0  0  0  0
 45 68  1  0  0  0  0
 46 69  1  0  0  0  0
 54 71  1  0  0  0  0
 55 71  1  0  0  0  0
 56 72  1  0  0  0  0
 57 73  1  0  0  0  0
 59 71  2  0  0  0  0
 60 72  2  0  0  0  0
 61 73  2  0  0  0  0
 67 71  1  0  0  0  0
 68 72  1  0  0  0  0
 69 73  1  0  0  0  0
 70 72  1  0  0  0  0
 70 73  1  0  0  0  0
M  CHG  5  56  -1  57  -1  51   1  54  -1  55  -1
M  END
> <scpdb_id>
1a4i_1

$$$$
