#    Name: 106
#    Modification time : Wed Aug  9 00:04:40 2017

@<TRIPOS>MOLECULE
106
  102     0     9     0     0
SMALL
NO_CHARGES


@<TRIPOS>ATOM
      1 N          -7.0070   18.9990   22.3150 N.am      1 SEL1        0.0000 
      2 N         -10.7750   18.5880   27.4830 N.am      1 SEL1        0.0000 
      3 N         -12.6830   15.8930   33.1190 N.am      1 SEL1        0.0000 
      4 O          -6.7600   17.0670   23.2530 O.2       2 ALL2        0.0000 
      5 O          -8.6710   17.5290   26.0810 O.2       2 ALL2        0.0000 
      6 O         -10.7750   18.5880   27.4830 O.2       2 ALL2        0.0000 
      7 O         -11.1320   15.8910   27.1560 O.2       2 ALL2        0.0000 
      8 O         -11.0440   15.9110   30.8960 O.2       2 ALL2        0.0000 
      9 O         -12.2160   13.7290   32.9580 O.2       2 ALL2        0.0000 
     10 O         -11.7650   14.2990   36.1950 O.2       2 ALL2        0.0000 
     11 CA        -10.3200   15.8710   23.1710 C.3       3 GLL5        0.0000 
     12 CA         -9.0780   16.9390   21.4010 C.3       3 GLL5        0.0000 
     13 CA         -8.2520   14.8290   22.3820 C.3       3 GLL5        0.0000 
     14 CA        -13.7480   14.4400   28.9460 C.3       3 GLL5        0.0000 
     15 CA        -14.7540   11.1090   31.5280 C.3       3 GLL5        0.0000 
     16 CA         -9.3890   15.6510   34.3070 C.3       3 GLL5        0.0000 
     17 CA         -8.5780   16.8290   32.3680 C.3       3 GLL5        0.0000 
     18 CA         -4.7010   16.4930   19.5350 C.3       3 GLL5        0.0000 
     19 CA         -4.2920   16.0020   17.1780 C.3       3 GLL5        0.0000 
     20 CA         -5.5140   17.0730   27.6160 C.3       3 GLL5        0.0000 
     21 CA         -7.5560   18.4790   28.0650 C.3       3 GLL5        0.0000 
     22 CA         -4.3590   16.7770   26.8860 C.3       3 GLL5        0.0000 
     23 CA        -12.8140   14.1760   27.9510 C.3       3 GLL5        0.0000 
     24 CA        -12.4500   11.9780   28.8400 C.3       3 GLL5        0.0000 
     25 CA        -12.1730   12.9580   27.8970 C.3       3 GLL5        0.0000 
     26 CA         -9.8250   16.3190   33.0540 C.3       3 GLL5        0.0000 
     27 CA        -11.7980   12.0390   37.0680 C.3       3 GLL5        0.0000 
     28 CA         -4.6650   18.7830   25.6200 C.3       3 GLL5        0.0000 
     29 N          -9.1760   20.8740   21.0090 N.am      4 SEP1        0.0000 
     30 N          -6.8880   22.2350   23.5950 N.am      4 SEP1        0.0000 
     31 N         -13.0710   18.5180   26.1350 N.am      4 SEP1        0.0000 
     32 N         -13.4250   18.3070   34.5300 N.am      4 SEP1        0.0000 
     33 O          -5.0300   14.7480   22.7200 O.2       5 ALP2        0.0000 
     34 O          -8.9580   20.3160   25.2140 O.2       5 ALP2        0.0000 
     35 O         -11.2940   21.5530   28.7600 O.2       5 ALP2        0.0000 
     36 O          -9.7190   20.7060   29.8840 O.2       5 ALP2        0.0000 
     37 O         -13.0710   18.5180   26.1350 O.2       5 ALP2        0.0000 
     38 O         -13.4010   17.9920   30.3840 O.2       5 ALP2        0.0000 
     39 O         -10.0470   11.9740   32.7050 O.2       5 ALP2        0.0000 
     40 O         -11.1410   15.5190   38.7650 O.2       5 ALP2        0.0000 
     41 CA        -12.9990   13.6020   20.9500 C.3       6 GLP5        0.0000 
     42 CA        -14.1280   16.8980   22.5040 C.3       6 GLP5        0.0000 
     43 CA        -10.1280   17.4330   17.6750 C.3       6 GLP5        0.0000 
     44 CA         -8.8840   12.6800   19.5850 C.3       6 GLP5        0.0000 
     45 CA         -8.2380   11.7800   24.9340 C.3       6 GLP5        0.0000 
     46 CA        -16.6180   17.1560   27.7930 C.3       6 GLP5        0.0000 
     47 CA        -15.0430    8.2650   28.2640 C.3       6 GLP5        0.0000 
     48 CA        -18.0040   12.1210   28.6460 C.3       6 GLP5        0.0000 
     49 CA        -10.1040   17.5270   38.0090 C.3       6 GLP5        0.0000 
     50 CA         -5.9600   13.5890   35.4760 C.3       6 GLP5        0.0000 
     51 CA         -5.1070   17.7520   34.6060 C.3       6 GLP5        0.0000 
     52 CA         -7.6640   20.8130   32.7940 C.3       6 GLP5        0.0000 
     53 CA         -6.4530   12.8590   18.8610 C.3       6 GLP5        0.0000 
     54 CA         -6.7270   13.4210   17.4760 C.3       6 GLP5        0.0000 
     55 CA         -4.2800   14.8980   30.7780 C.3       6 GLP5        0.0000 
     56 CA         -5.3470   19.2990   31.1370 C.3       6 GLP5        0.0000 
     57 CA         -0.7550   16.4480   27.6990 C.3       6 GLP5        0.0000 
     58 CA        -14.1130   14.0210   24.2800 C.3       6 GLP5        0.0000 
     59 CA        -13.5530    8.2470   27.9440 C.3       6 GLP5        0.0000 
     60 CA        -10.7870   11.5820   24.9240 C.3       6 GLP5        0.0000 
     61 CA        -11.0460   20.0710   32.7670 C.3       6 GLP5        0.0000 
     62 CA         -8.4670   13.0520   37.6870 C.3       6 GLP5        0.0000 
     63 CA        -11.8220   19.5880   22.8530 C.3       6 GLP5        0.0000 
     64 CA         -2.8250   20.5740   27.8760 C.3       6 GLP5        0.0000 
     65 CA        -16.1500   12.6320   27.1520 C.3       6 GLP5        0.0000 
     66 N          -8.0915   19.9365   21.6620 N.am      7 SEC1        0.0000 
     67 N          -6.9475   20.6170   22.9550 N.am      7 SEC1        0.0000 
     68 N         -11.9230   18.5530   26.8090 N.am      7 SEC1        0.0000 
     69 N         -13.0540   17.1000   33.8245 N.am      7 SEC1        0.0000 
     70 O          -5.8950   15.9075   22.9865 O.2       8 ALC2        0.0000 
     71 O          -8.8145   18.9225   25.6475 O.2       8 ALC2        0.0000 
     72 O         -11.0345   20.0705   28.1215 O.2       8 ALC2        0.0000 
     73 O         -10.2470   19.6470   28.6835 O.2       8 ALC2        0.0000 
     74 O         -12.1015   17.2045   26.6455 O.2       8 ALC2        0.0000 
     75 O         -12.2225   16.9515   30.6400 O.2       8 ALC2        0.0000 
     76 O         -11.1315   12.8515   32.8315 O.2       8 ALC2        0.0000 
     77 O         -11.4530   14.9090   37.4800 O.2       8 ALC2        0.0000 
     78 CA        -11.6595   14.7365   22.0605 C.3       9 GLC5        0.0000 
     79 CA        -12.2240   16.3845   22.8375 C.3       9 GLC5        0.0000 
     80 CA         -9.6030   17.1860   19.5380 C.3       9 GLC5        0.0000 
     81 CA         -8.5680   13.7545   20.9835 C.3       9 GLC5        0.0000 
     82 CA         -8.2450   13.3045   23.6580 C.3       9 GLC5        0.0000 
     83 CA        -15.1830   15.7980   28.3695 C.3       9 GLC5        0.0000 
     84 CA        -14.8985    9.6870   29.8960 C.3       9 GLC5        0.0000 
     85 CA        -16.3790   11.6150   30.0870 C.3       9 GLC5        0.0000 
     86 CA         -9.7465   16.5890   36.1580 C.3       9 GLC5        0.0000 
     87 CA         -7.6745   14.6200   34.8915 C.3       9 GLC5        0.0000 
     88 CA         -6.8425   17.2905   33.4870 C.3       9 GLC5        0.0000 
     89 CA         -8.1210   18.8210   32.5810 C.3       9 GLC5        0.0000 
     90 CA         -5.2633   14.5422   19.2755 C.3       9 GLC5        0.0000 
     91 CA         -5.5574   14.7720   17.6211 C.3       9 GLC5        0.0000 
     92 CA         -4.6082   15.9115   29.0145 C.3       9 GLC5        0.0000 
     93 CA         -5.7770   18.5061   29.3991 C.3       9 GLC5        0.0000 
     94 CA         -2.4475   16.8233   27.0395 C.3       9 GLC5        0.0000 
     95 CA        -13.3033   13.7940   26.1020 C.3       9 GLC5        0.0000 
     96 CA        -13.2310   10.1738   28.6427 C.3       9 GLC5        0.0000 
     97 CA        -11.6294   12.1773   26.6530 C.3       9 GLC5        0.0000 
     98 CA        -10.1237   18.3225   32.7390 C.3       9 GLC5        0.0000 
     99 CA        -10.2619   12.3154   37.2257 C.3       9 GLC5        0.0000 
    100 CA        -10.5657   17.9400   22.6707 C.3       9 GLC5        0.0000 
    101 CA         -3.9113   19.1798   27.2631 C.3       9 GLC5        0.0000 
    102 CA        -14.5846   12.8415   28.0200 C.3       9 GLC5        0.0000 
@<TRIPOS>BOND
@<TRIPOS>SUBSTRUCTURE
     1 SEL1        1 GROUP        1 Z    SEL  0     ROOT SEL Z 0
     2 ALL2        4 GROUP        1 Z    ALL  0     **** ALL Z 1
     3 GLL5       11 GROUP        1 Z    GLL  0     **** GLL Z 4
     4 SEP1       29 GROUP        1 Z    SEP  0     **** SEP Z 7
     5 ALP2       33 GROUP        1 Z    ALP  0     **** ALP Z 8
     6 GLP5       41 GROUP        1 Z    GLP  0     **** GLP Z 11
     7 SEC1       66 GROUP        1 Z    SEC  0     **** SEC Z 14
     8 ALC2       70 GROUP        1 Z    ALC  0     **** ALC Z 15
     9 GLC5       78 GROUP        1 Z    GLC  0     **** GLC Z 18
@<TRIPOS>SET

