1a8g_2Z4_1_ligand
  -OEChem-08111718373D

120123  0     1  0  0  0  0  0999 V2000
   -3.1014   17.4056   25.3427 H   0  0  0  0  0  0  0  0  0  0  0  0
   -2.4429   15.1172   16.7635 H   0  0  0  0  0  0  0  0  0  0  0  0
   -3.8417   15.9472   27.0956 H   0  0  0  0  0  0  0  0  0  0  0  0
   -4.3589   19.4045   24.8988 H   0  0  0  0  0  0  0  0  0  0  0  0
   -1.7241   15.0593   19.0555 H   0  0  0  0  0  0  0  0  0  0  0  0
   -4.6072   16.0201   16.2291 H   0  0  0  0  0  0  0  0  0  0  0  0
   -5.8184   16.4500   28.3366 H   0  0  0  0  0  0  0  0  0  0  0  0
   -6.3370   19.9381   26.1455 H   0  0  0  0  0  0  0  0  0  0  0  0
   -3.1343   15.9387   20.7950 H   0  0  0  0  0  0  0  0  0  0  0  0
   -6.0073   16.8887   17.9672 H   0  0  0  0  0  0  0  0  0  0  0  0
  -11.5048   12.7790   27.1749 H   0  0  0  0  0  0  0  0  0  0  0  0
  -14.2082   15.3270   28.9835 H   0  0  0  0  0  0  0  0  0  0  0  0
  -13.6424   10.7589   34.0008 H   0  0  0  0  0  0  0  0  0  0  0  0
  -11.9848   11.0940   28.7934 H   0  0  0  0  0  0  0  0  0  0  0  0
  -14.7202   13.6270   30.6036 H   0  0  0  0  0  0  0  0  0  0  0  0
  -13.0472    9.2254   35.7514 H   0  0  0  0  0  0  0  0  0  0  0  0
  -11.3055   12.3680   37.8737 H   0  0  0  0  0  0  0  0  0  0  0  0
   -8.8918   16.3046   34.8776 H   0  0  0  0  0  0  0  0  0  0  0  0
  -10.1906   15.3175   34.8033 H   0  0  0  0  0  0  0  0  0  0  0  0
   -8.7911   14.8811   34.0837 H   0  0  0  0  0  0  0  0  0  0  0  0
   -8.1039   17.4700   32.9717 H   0  0  0  0  0  0  0  0  0  0  0  0
   -7.9744   16.0597   32.1587 H   0  0  0  0  0  0  0  0  0  0  0  0
   -8.8309   17.2947   31.5199 H   0  0  0  0  0  0  0  0  0  0  0  0
  -10.7834   15.2936   22.4988 H   0  0  0  0  0  0  0  0  0  0  0  0
  -10.2740   15.3913   24.0472 H   0  0  0  0  0  0  0  0  0  0  0  0
  -10.8288   16.7244   23.2845 H   0  0  0  0  0  0  0  0  0  0  0  0
   -9.5777   16.3768   20.7420 H   0  0  0  0  0  0  0  0  0  0  0  0
   -9.5859   17.7834   21.5716 H   0  0  0  0  0  0  0  0  0  0  0  0
   -8.1754   17.1616   21.0326 H   0  0  0  0  0  0  0  0  0  0  0  0
   -8.8162   14.3187   21.7329 H   0  0  0  0  0  0  0  0  0  0  0  0
   -7.3480   14.9875   21.9850 H   0  0  0  0  0  0  0  0  0  0  0  0
   -8.1574   14.3027   23.2270 H   0  0  0  0  0  0  0  0  0  0  0  0
  -14.6910   10.3513   32.1775 H   0  0  0  0  0  0  0  0  0  0  0  0
  -14.9350   11.9586   32.0234 H   0  0  0  0  0  0  0  0  0  0  0  0
  -15.4980   10.9343   30.8831 H   0  0  0  0  0  0  0  0  0  0  0  0
  -11.5049    9.4931   39.9262 H   0  0  0  0  0  0  0  0  0  0  0  0
  -10.9419   10.9017   39.3217 H   0  0  0  0  0  0  0  0  0  0  0  0
  -12.5408   10.7107   39.5928 H   0  0  0  0  0  0  0  0  0  0  0  0
   -7.4292   18.3551   29.0492 H   0  0  0  0  0  0  0  0  0  0  0  0
   -7.8638   19.4130   27.8836 H   0  0  0  0  0  0  0  0  0  0  0  0
  -14.0147   12.9121   33.2898 H   0  0  0  0  0  0  0  0  0  0  0  0
  -13.6854   14.2027   34.2344 H   0  0  0  0  0  0  0  0  0  0  0  0
  -12.3908   14.8024   26.0447 H   0  0  0  0  0  0  0  0  0  0  0  0
  -13.1225   15.9427   26.9565 H   0  0  0  0  0  0  0  0  0  0  0  0
   -6.2056   17.7308   20.1321 H   0  0  0  0  0  0  0  0  0  0  0  0
   -6.1429   16.3279   20.9655 H   0  0  0  0  0  0  0  0  0  0  0  0
  -10.0682   14.4825   31.9844 H   0  0  0  0  0  0  0  0  0  0  0  0
   -8.4894   18.0122   23.6230 H   0  0  0  0  0  0  0  0  0  0  0  0
  -11.6062   16.8638   28.7154 H   0  0  0  0  0  0  0  0  0  0  0  0
  -10.4194   17.0911   33.2790 H   0  0  0  0  0  0  0  0  0  0  0  0
   -8.3059   16.5636   27.8111 H   0  0  0  0  0  0  0  0  0  0  0  0
   -9.7757   18.1788   29.1600 H   0  0  0  0  0  0  0  0  0  0  0  0
  -11.6918   13.0179   32.4894 H   0  0  0  0  0  0  0  0  0  0  0  0
  -11.8426   16.5128   30.8982 H   0  0  0  0  0  0  0  0  0  0  0  0
   -9.0810   18.3573   25.6992 H   0  0  0  0  0  0  0  0  0  0  0  0
   -6.1956   16.2629   23.4399 H   0  0  0  0  0  0  0  0  0  0  0  0
  -10.4352   15.2104   26.9298 H   0  0  0  0  0  0  0  0  0  0  0  0
  -11.2794   14.6010   37.0154 H   0  0  0  0  0  0  0  0  0  0  0  0
  -10.9771   19.4282   27.9862 H   0  0  0  0  0  0  0  0  0  0  0  0
   -3.9210   17.6200   25.8740 C   0  0  0  0  0  0  0  0  0  0  0  0
   -3.0350   15.4720   17.4870 C   0  0  0  0  0  0  0  0  0  0  0  0
   -4.3590   16.7770   26.8860 C   0  0  0  0  0  0  0  0  0  0  0  0
   -4.6650   18.7830   25.6200 C   0  0  0  0  0  0  0  0  0  0  0  0
   -2.6170   15.4450   18.8230 C   0  0  0  0  0  0  0  0  0  0  0  0
   -4.2920   16.0020   17.1780 C   0  0  0  0  0  0  0  0  0  0  0  0
   -5.5140   17.0730   27.6160 C   0  0  0  0  0  0  0  0  0  0  0  0
   -5.8240   19.1030   26.3440 C   0  0  0  0  0  0  0  0  0  0  0  0
   -3.4460   15.9580   19.8450 C   0  0  0  0  0  0  0  0  0  0  0  0
   -5.1120   16.5090   18.2000 C   0  0  0  0  0  0  0  0  0  0  0  0
  -12.1730   12.9580   27.8970 C   0  0  0  0  0  0  0  0  0  0  0  0
  -13.7480   14.4400   28.9460 C   0  0  0  0  0  0  0  0  0  0  0  0
  -13.1570   11.0900   34.8100 C   0  0  0  0  0  0  0  0  0  0  0  0
  -12.4500   11.9780   28.8400 C   0  0  0  0  0  0  0  0  0  0  0  0
  -14.0380   13.4550   29.8930 C   0  0  0  0  0  0  0  0  0  0  0  0
  -12.8160   10.1950   35.8320 C   0  0  0  0  0  0  0  0  0  0  0  0
  -11.7980   12.0390   37.0680 C   0  0  0  0  0  0  0  0  0  0  0  0
   -6.2440   18.2280   27.3480 C   0  0  0  0  0  0  0  0  0  0  0  0
  -12.8140   14.1760   27.9510 C   0  0  0  0  0  0  0  0  0  0  0  0
   -4.7010   16.4930   19.5350 C   0  0  0  0  0  0  0  0  0  0  0  0
  -12.8210   12.4510   34.9150 C   0  0  0  0  0  0  0  0  0  0  0  0
  -13.3680   12.2230   29.8430 C   0  0  0  0  0  0  0  0  0  0  0  0
  -12.1470   10.6710   36.9700 C   0  0  0  0  0  0  0  0  0  0  0  0
  -12.1350   12.9340   36.0500 C   0  0  0  0  0  0  0  0  0  0  0  0
  -11.9160   14.9850   32.7890 C   0  0  0  0  0  0  0  0  0  0  0  0
   -8.2580   16.6200   25.1720 C   0  0  0  0  0  0  0  0  0  0  0  0
  -10.4100   15.6800   29.7490 C   0  0  0  0  0  0  0  0  0  0  0  0
   -6.2310   18.0840   22.6140 C   0  0  0  0  0  0  0  0  0  0  0  0
   -9.3890   15.6510   34.3070 C   0  0  0  0  0  0  0  0  0  0  0  0
   -8.5780   16.8290   32.3680 C   0  0  0  0  0  0  0  0  0  0  0  0
  -10.3200   15.8710   23.1710 C   0  0  0  0  0  0  0  0  0  0  0  0
   -9.0780   16.9390   21.4010 C   0  0  0  0  0  0  0  0  0  0  0  0
   -8.2520   14.8290   22.3820 C   0  0  0  0  0  0  0  0  0  0  0  0
  -14.7540   11.1090   31.5280 C   0  0  0  0  0  0  0  0  0  0  0  0
  -11.7010   10.2510   39.3040 C   0  0  0  0  0  0  0  0  0  0  0  0
   -7.5560   18.4790   28.0650 C   0  0  1  0  0  0  0  0  0  0  0  0
  -13.3060   13.3740   33.8230 C   0  0  1  0  0  0  0  0  0  0  0  0
  -12.4160   15.2350   26.9460 C   0  0  1  0  0  0  0  0  0  0  0  0
   -5.6040   17.0930   20.6130 C   0  0  1  0  0  0  0  0  0  0  0  0
  -10.6050   15.3100   32.1490 C   0  0  2  0  0  0  0  0  0  0  0  0
   -8.1400   17.0780   23.6950 C   0  0  2  0  0  0  0  0  0  0  0  0
  -10.7280   16.4700   28.4440 C   0  0  1  0  0  0  0  0  0  0  0  0
   -9.8250   16.3190   33.0540 C   0  0  1  0  0  0  0  0  0  0  0  0
   -8.6070   17.4810   27.5510 C   0  0  1  0  0  0  0  0  0  0  0  0
   -9.9440   17.7550   28.2700 C   0  0  1  0  0  0  0  0  0  0  0  0
   -8.9200   16.1790   22.6910 C   0  0  2  0  0  0  0  0  0  0  0  0
  -12.2160   13.7290   32.9580 N   0  0  0  0  0  0  0  0  0  0  0  0
  -11.0440   15.9110   30.8960 N   0  0  0  0  0  0  0  0  0  0  0  0
   -8.6710   17.5290   26.0810 N   0  0  0  0  0  0  0  0  0  0  0  0
   -6.7600   17.0670   23.2530 N   0  0  0  0  0  0  0  0  0  0  0  0
  -11.1320   15.8910   27.1560 N   0  3  1  0  0  0  0  0  0  0  0  0
  -12.6830   15.8930   33.1190 O   0  0  0  0  0  0  0  0  0  0  0  0
   -7.9600   15.4600   25.5450 O   0  0  0  0  0  0  0  0  0  0  0  0
   -9.5820   14.7440   29.7370 O   0  0  0  0  0  0  0  0  0  0  0  0
   -7.0070   18.9990   22.3150 O   0  0  0  0  0  0  0  0  0  0  0  0
  -11.7650   14.2990   36.1950 O   0  0  0  0  0  0  0  0  0  0  0  0
  -10.7750   18.5880   27.4830 O   0  0  0  0  0  0  0  0  0  0  0  0
  -13.5060   11.2290   30.8040 O   0  0  0  0  0  0  0  0  0  0  0  0
  -11.8660    9.7470   37.9760 O   0  0  0  0  0  0  0  0  0  0  0  0
   -5.1400   17.8070   21.7800 O   0  0  0  0  0  0  0  0  0  0  0  0
  -11.0941   16.6395   26.4940 H   0  0  0  0  0  0  0  0  0  0  0  0
  1 60  1  0  0  0  0
  2 61  1  0  0  0  0
  3 62  1  0  0  0  0
  4 63  1  0  0  0  0
  5 64  1  0  0  0  0
  6 65  1  0  0  0  0
  7 66  1  0  0  0  0
  8 67  1  0  0  0  0
  9 68  1  0  0  0  0
 10 69  1  0  0  0  0
 11 70  1  0  0  0  0
 12 71  1  0  0  0  0
 13 72  1  0  0  0  0
 14 73  1  0  0  0  0
 15 74  1  0  0  0  0
 16 75  1  0  0  0  0
 17 76  1  0  0  0  0
 18 88  1  0  0  0  0
 19 88  1  0  0  0  0
 20 88  1  0  0  0  0
 21 89  1  0  0  0  0
 22 89  1  0  0  0  0
 23 89  1  0  0  0  0
 24 90  1  0  0  0  0
 25 90  1  0  0  0  0
 26 90  1  0  0  0  0
 27 91  1  0  0  0  0
 28 91  1  0  0  0  0
 29 91  1  0  0  0  0
 30 92  1  0  0  0  0
 31 92  1  0  0  0  0
 32 92  1  0  0  0  0
 33 93  1  0  0  0  0
 34 93  1  0  0  0  0
 35 93  1  0  0  0  0
 36 94  1  0  0  0  0
 37 94  1  0  0  0  0
 38 94  1  0  0  0  0
 39 95  1  0  0  0  0
 40 95  1  0  0  0  0
 41 96  1  0  0  0  0
 42 96  1  0  0  0  0
 43 97  1  0  0  0  0
 44 97  1  0  0  0  0
 45 98  1  0  0  0  0
 46 98  1  0  0  0  0
 47 99  1  0  0  0  0
 48100  1  0  0  0  0
 49101  1  0  0  0  0
 50102  1  0  0  0  0
 51103  1  0  0  0  0
 52104  1  0  0  0  0
 53106  1  0  0  0  0
 54107  1  0  0  0  0
 55108  1  0  0  0  0
 56109  1  0  0  0  0
 57110  1  0  0  0  0
 58115  1  0  0  0  0
 59116  1  0  0  0  0
 60 62  2  0  0  0  0
 60 63  1  0  0  0  0
 61 64  2  0  0  0  0
 61 65  1  0  0  0  0
 62 66  1  0  0  0  0
 63 67  2  0  0  0  0
 64 68  1  0  0  0  0
 65 69  2  0  0  0  0
 66 77  2  0  0  0  0
 67 77  1  0  0  0  0
 68 79  2  0  0  0  0
 69 79  1  0  0  0  0
 70 73  1  0  0  0  0
 70 78  2  0  0  0  0
 71 74  2  0  0  0  0
 71 78  1  0  0  0  0
 72 75  2  0  0  0  0
 72 80  1  0  0  0  0
 73 81  2  0  0  0  0
 74 81  1  0  0  0  0
 75 82  1  0  0  0  0
 76 82  2  0  0  0  0
 76 83  1  0  0  0  0
 77 95  1  0  0  0  0
 78 97  1  0  0  0  0
 79 98  1  0  0  0  0
 80 83  2  0  0  0  0
 80 96  1  0  0  0  0
 81117  1  0  0  0  0
 82118  1  0  0  0  0
 83115  1  0  0  0  0
 84 99  1  0  0  0  0
 84106  1  0  0  0  0
 84111  2  0  0  0  0
 85100  1  0  0  0  0
 85108  1  0  0  0  0
 85112  2  0  0  0  0
 86101  1  0  0  0  0
 86107  1  0  0  0  0
 86113  2  0  0  0  0
 87109  1  0  0  0  0
 87114  2  0  0  0  0
 87119  1  0  0  0  0
 88102  1  0  0  0  0
 89102  1  0  0  0  0
 90105  1  0  0  0  0
 91105  1  0  0  0  0
 92105  1  0  0  0  0
 93117  1  0  0  0  0
 94118  1  0  0  0  0
 95103  1  0  0  0  0
 96106  1  0  0  0  0
 97110  1  0  0  0  0
 98119  1  0  0  0  0
 99102  1  0  0  0  0
 99107  1  0  0  0  0
100105  1  0  0  0  0
100109  1  0  0  0  0
101104  1  0  0  0  0
101110  1  0  0  0  0
103104  1  0  0  0  0
103108  1  0  0  0  0
104116  1  0  0  0  0
110120  1  0  0  0  0
M  CHG  1 110   1
M  END
> <scpdb_id>
1a8g_1

$$$$
