@<TRIPOS>MOLECULE
1a8g_2Z4_1_ligand
  120   123     1     0     0
SMALL
NO_CHARGES


@<TRIPOS>ATOM
     1 C1          -6.2310    18.0840    22.6140 C.2          1 2Z4100   0.0000
     2 O1          -7.0070    18.9990    22.3150 O.2          1 2Z4100   0.0000
     3 O2          -5.1400    17.8070    21.7800 O.3          1 2Z4100   0.0000
     4 C2          -5.6040    17.0930    20.6130 C.3          1 2Z4100   0.0000
     5 C3          -4.7010    16.4930    19.5350 C.ar         1 2Z4100   0.0000
     6 C4          -3.4460    15.9580    19.8450 C.ar         1 2Z4100   0.0000
     7 C5          -2.6170    15.4450    18.8230 C.ar         1 2Z4100   0.0000
     8 C6          -3.0350    15.4720    17.4870 C.ar         1 2Z4100   0.0000
     9 C7          -4.2920    16.0020    17.1780 C.ar         1 2Z4100   0.0000
    10 C8          -5.1120    16.5090    18.2000 C.ar         1 2Z4100   0.0000
    11 N           -6.7600    17.0670    23.2530 N.am         1 2Z4100   0.0000
    12 CA          -8.1400    17.0780    23.6950 C.3          1 2Z4100   0.0000
    13 CB          -8.9200    16.1790    22.6910 C.3          1 2Z4100   0.0000
    14 CG1        -10.3200    15.8710    23.1710 C.3          1 2Z4100   0.0000
    15 CG2         -9.0780    16.9390    21.4010 C.3          1 2Z4100   0.0000
    16 CG3         -8.2520    14.8290    22.3820 C.3          1 2Z4100   0.0000
    17 C           -8.2580    16.6200    25.1720 C.2          1 2Z4100   0.0000
    18 O           -7.9600    15.4600    25.5450 O.2          1 2Z4100   0.0000
    19 N1          -8.6710    17.5290    26.0810 N.am         1 2Z4100   0.0000
    20 CA1         -8.6070    17.4810    27.5510 C.3          1 2Z4100   0.0000
    21 CB1         -7.5560    18.4790    28.0650 C.3          1 2Z4100   0.0000
    22 CG11        -6.2440    18.2280    27.3480 C.ar         1 2Z4100   0.0000
    23 CD1         -5.5140    17.0730    27.6160 C.ar         1 2Z4100   0.0000
    24 CD2         -5.8240    19.1030    26.3440 C.ar         1 2Z4100   0.0000
    25 CE1         -4.3590    16.7770    26.8860 C.ar         1 2Z4100   0.0000
    26 CE2         -4.6650    18.7830    25.6200 C.ar         1 2Z4100   0.0000
    27 CZ1         -3.9210    17.6200    25.8740 C.ar         1 2Z4100   0.0000
    28 CM          -9.9440    17.7550    28.2700 C.3          1 2Z4100   0.0000
    29 OH         -10.7750    18.5880    27.4830 O.3          1 2Z4100   0.0000
    30 N2         -11.1320    15.8910    27.1560 N.4          1 2Z4100   1.0000
    31 CA2        -10.7280    16.4700    28.4440 C.3          1 2Z4100   0.0000
    32 CB2        -12.4160    15.2350    26.9460 C.3          1 2Z4100   0.0000
    33 CG21       -12.8140    14.1760    27.9510 C.ar         1 2Z4100   0.0000
    34 CD4        -12.1730    12.9580    27.8970 C.ar         1 2Z4100   0.0000
    35 CE3        -12.4500    11.9780    28.8400 C.ar         1 2Z4100   0.0000
    36 CD3        -13.7480    14.4400    28.9460 C.ar         1 2Z4100   0.0000
    37 CE4        -14.0380    13.4550    29.8930 C.ar         1 2Z4100   0.0000
    38 CZ2        -13.3680    12.2230    29.8430 C.ar         1 2Z4100   0.0000
    39 OE2        -13.5060    11.2290    30.8040 O.3          1 2Z4100   0.0000
    40 CM2        -14.7540    11.1090    31.5280 C.3          1 2Z4100   0.0000
    41 C9         -10.4100    15.6800    29.7490 C.2          1 2Z4100   0.0000
    42 O3          -9.5820    14.7440    29.7370 O.2          1 2Z4100   0.0000
    43 N3         -11.0440    15.9110    30.8960 N.am         1 2Z4100   0.0000
    44 CA3        -10.6050    15.3100    32.1490 C.3          1 2Z4100   0.0000
    45 CC         -11.9160    14.9850    32.7890 C.2          1 2Z4100   0.0000
    46 O4         -12.6830    15.8930    33.1190 O.2          1 2Z4100   0.0000
    47 CB3         -9.8250    16.3190    33.0540 C.3          1 2Z4100   0.0000
    48 CG12        -9.3890    15.6510    34.3070 C.3          1 2Z4100   0.0000
    49 CG22        -8.5780    16.8290    32.3680 C.3          1 2Z4100   0.0000
    50 N4         -12.2160    13.7290    32.9580 N.am         1 2Z4100   0.0000
    51 CB4        -13.3060    13.3740    33.8230 C.3          1 2Z4100   0.0000
    52 CG         -12.8210    12.4510    34.9150 C.ar         1 2Z4100   0.0000
    53 CD11       -12.1350    12.9340    36.0500 C.ar         1 2Z4100   0.0000
    54 CE11       -11.7980    12.0390    37.0680 C.ar         1 2Z4100   0.0000
    55 CD21       -13.1570    11.0900    34.8100 C.ar         1 2Z4100   0.0000
    56 CE21       -12.8160    10.1950    35.8320 C.ar         1 2Z4100   0.0000
    57 CZ         -12.1470    10.6710    36.9700 C.ar         1 2Z4100   0.0000
    58 OE         -11.8660     9.7470    37.9760 O.3          1 2Z4100   0.0000
    59 CM1        -11.7010    10.2510    39.3040 C.3          1 2Z4100   0.0000
    60 OH1        -11.7650    14.2990    36.1950 O.3          1 2Z4100   0.0000
    61 H1          -6.2056    17.7308    20.1321 H            1 2Z4100   0.0000
    62 H2          -6.1429    16.3279    20.9655 H            1 2Z4100   0.0000
    63 H3          -3.1343    15.9387    20.7950 H            1 2Z4100   0.0000
    64 H4          -1.7241    15.0593    19.0555 H            1 2Z4100   0.0000
    65 H5          -2.4429    15.1172    16.7635 H            1 2Z4100   0.0000
    66 H6          -4.6072    16.0201    16.2291 H            1 2Z4100   0.0000
    67 H7          -6.0073    16.8887    17.9672 H            1 2Z4100   0.0000
    68 H8          -6.1956    16.2629    23.4399 H            1 2Z4100   0.0000
    69 HA          -8.4894    18.0122    23.6230 H            1 2Z4100   0.0000
    70 HG11       -10.7834    15.2936    22.4988 H            1 2Z4100   0.0000
    71 HG12       -10.2740    15.3913    24.0472 H            1 2Z4100   0.0000
    72 HG13       -10.8288    16.7244    23.2845 H            1 2Z4100   0.0000
    73 HG21        -9.5777    16.3768    20.7420 H            1 2Z4100   0.0000
    74 HG22        -9.5859    17.7834    21.5716 H            1 2Z4100   0.0000
    75 HG23        -8.1754    17.1616    21.0326 H            1 2Z4100   0.0000
    76 HG31        -8.8162    14.3187    21.7329 H            1 2Z4100   0.0000
    77 HG32        -7.3480    14.9875    21.9850 H            1 2Z4100   0.0000
    78 HG33        -8.1574    14.3027    23.2270 H            1 2Z4100   0.0000
    79 H19         -9.0810    18.3573    25.6992 H            1 2Z4100   0.0000
    80 HA1         -8.3059    16.5636    27.8111 H            1 2Z4100   0.0000
    81 HB11        -7.4292    18.3551    29.0492 H            1 2Z4100   0.0000
    82 HB12        -7.8638    19.4130    27.8836 H            1 2Z4100   0.0000
    83 HD1         -5.8184    16.4500    28.3366 H            1 2Z4100   0.0000
    84 HD2         -6.3370    19.9381    26.1455 H            1 2Z4100   0.0000
    85 HE1         -3.8417    15.9472    27.0956 H            1 2Z4100   0.0000
    86 HE2         -4.3589    19.4045    24.8988 H            1 2Z4100   0.0000
    87 HZ1         -3.1014    17.4056    25.3427 H            1 2Z4100   0.0000
    88 HM          -9.7757    18.1788    29.1600 H            1 2Z4100   0.0000
    89 HH         -10.9771    19.4282    27.9862 H            1 2Z4100   0.0000
    90 H30        -10.4352    15.2104    26.9298 H            1 2Z4100   0.0000
    91 HA2        -11.6062    16.8638    28.7154 H            1 2Z4100   0.0000
    92 HB21       -12.3908    14.8024    26.0447 H            1 2Z4100   0.0000
    93 HB22       -13.1225    15.9427    26.9565 H            1 2Z4100   0.0000
    94 HD4        -11.5048    12.7790    27.1749 H            1 2Z4100   0.0000
    95 HE3        -11.9848    11.0940    28.7934 H            1 2Z4100   0.0000
    96 HD3        -14.2082    15.3270    28.9835 H            1 2Z4100   0.0000
    97 HE4        -14.7202    13.6270    30.6036 H            1 2Z4100   0.0000
    98 HM21       -14.6910    10.3513    32.1775 H            1 2Z4100   0.0000
    99 HM22       -14.9350    11.9586    32.0234 H            1 2Z4100   0.0000
   100 HM23       -15.4980    10.9343    30.8831 H            1 2Z4100   0.0000
   101 H41        -11.8426    16.5128    30.8982 H            1 2Z4100   0.0000
   102 HA3        -10.0682    14.4825    31.9844 H            1 2Z4100   0.0000
   103 HB3        -10.4194    17.0911    33.2790 H            1 2Z4100   0.0000
   104 H44         -8.8918    16.3046    34.8776 H            1 2Z4100   0.0000
   105 H45        -10.1906    15.3175    34.8033 H            1 2Z4100   0.0000
   106 H46         -8.7911    14.8811    34.0837 H            1 2Z4100   0.0000
   107 H47         -8.1039    17.4700    32.9717 H            1 2Z4100   0.0000
   108 H48         -7.9744    16.0597    32.1587 H            1 2Z4100   0.0000
   109 H49         -8.8309    17.2947    31.5199 H            1 2Z4100   0.0000
   110 H50        -11.6918    13.0179    32.4894 H            1 2Z4100   0.0000
   111 HB41       -14.0147    12.9121    33.2898 H            1 2Z4100   0.0000
   112 HB42       -13.6854    14.2027    34.2344 H            1 2Z4100   0.0000
   113 H53        -11.3055    12.3680    37.8737 H            1 2Z4100   0.0000
   114 H54        -13.6424    10.7589    34.0008 H            1 2Z4100   0.0000
   115 H55        -13.0472     9.2254    35.7514 H            1 2Z4100   0.0000
   116 HM11       -11.5049     9.4931    39.9262 H            1 2Z4100   0.0000
   117 HM12       -10.9419    10.9017    39.3217 H            1 2Z4100   0.0000
   118 HM13       -12.5408    10.7107    39.5928 H            1 2Z4100   0.0000
   119 HH1        -11.2794    14.6010    37.0154 H            1 2Z4100   0.0000
   120 H60        -11.0941    16.6395    26.4940 H            1 2Z4100   0.0000
@<TRIPOS>BOND
     1    1    2       2
     2    1    3       1
     3    1   11      am
     4    3    4       1
     5    4    5       1
     6    5    6      ar
     7    5   10      ar
     8    6    7      ar
     9    7    8      ar
    10    8    9      ar
    11    9   10      ar
    12   11   12       1
    13   12   13       1
    14   12   17       1
    15   13   14       1
    16   13   15       1
    17   13   16       1
    18   17   18       2
    19   17   19      am
    20   19   20       1
    21   20   21       1
    22   20   28       1
    23   21   22       1
    24   22   23      ar
    25   22   24      ar
    26   23   25      ar
    27   24   26      ar
    28   25   27      ar
    29   26   27      ar
    30   28   29       1
    31   28   31       1
    32   30   31       1
    33   30   32       1
    34   31   41       1
    35   32   33       1
    36   33   34      ar
    37   33   36      ar
    38   34   35      ar
    39   35   38      ar
    40   36   37      ar
    41   37   38      ar
    42   38   39       1
    43   39   40       1
    44   41   42       2
    45   41   43      am
    46   43   44       1
    47   44   45       1
    48   44   47       1
    49   45   46       2
    50   45   50      am
    51   47   48       1
    52   47   49       1
    53   50   51       1
    54   51   52       1
    55   52   53      ar
    56   52   55      ar
    57   53   54      ar
    58   53   60       1
    59   54   57      ar
    60   55   56      ar
    61   56   57      ar
    62   57   58       1
    63   58   59       1
    64    4   61       1
    65    4   62       1
    66    6   63       1
    67    7   64       1
    68    8   65       1
    69    9   66       1
    70   10   67       1
    71   11   68       1
    72   12   69       1
    73   14   70       1
    74   14   71       1
    75   14   72       1
    76   15   73       1
    77   15   74       1
    78   15   75       1
    79   16   76       1
    80   16   77       1
    81   16   78       1
    82   19   79       1
    83   20   80       1
    84   21   81       1
    85   21   82       1
    86   23   83       1
    87   24   84       1
    88   25   85       1
    89   26   86       1
    90   27   87       1
    91   28   88       1
    92   29   89       1
    93   30   90       1
    94   31   91       1
    95   32   92       1
    96   32   93       1
    97   34   94       1
    98   35   95       1
    99   36   96       1
   100   37   97       1
   101   40   98       1
   102   40   99       1
   103   40  100       1
   104   43  101       1
   105   44  102       1
   106   47  103       1
   107   48  104       1
   108   48  105       1
   109   48  106       1
   110   49  107       1
   111   49  108       1
   112   49  109       1
   113   50  110       1
   114   51  111       1
   115   51  112       1
   116   54  113       1
   117   55  114       1
   118   56  115       1
   119   59  116       1
   120   59  117       1
   121   59  118       1
   122   60  119       1
   123   30  120       1
@<TRIPOS>SUBSTRUCTURE
     1 2Z4100      1 GROUP             4 A     2Z4     0 **** 2Z4 A 100
