#    Name: 101
#    Modification time : Tue Aug  8 20:35:00 2017

@<TRIPOS>MOLECULE
101
   81     0     9     0     0
SMALL
NO_CHARGES


@<TRIPOS>ATOM
      1 N          15.5660   14.1610   27.4680 N.am      1 SEL1        0.0000 
      2 N          16.3970   10.0780   29.0410 N.am      1 SEL1        0.0000 
      3 N          11.9730   15.0220   24.2980 N.am      1 SEL1        0.0000 
      4 O          14.7060    6.4190   27.6800 O.2       2 ALL2        0.0000 
      5 O          11.9730   15.0220   24.2980 O.2       2 ALL2        0.0000 
      6 CA         17.8950   12.5640   26.4520 C.3       3 GLL5        0.0000 
      7 CA         17.7930   12.1590   24.9860 C.3       3 GLL5        0.0000 
      8 CA         17.5540   10.6810   24.8570 C.3       3 GLL5        0.0000 
      9 CA         12.3080    8.1880   27.7500 C.3       3 GLL5        0.0000 
     10 CA         13.8000    8.0040   29.7300 C.3       3 GLL5        0.0000 
     11 CA         12.6050    5.5710   23.1520 C.3       3 GLL5        0.0000 
     12 CA         13.3440    9.5530   22.0850 C.3       3 GLL5        0.0000 
     13 CA         14.5330    8.7940   21.5080 C.3       3 GLL5        0.0000 
     14 CA         11.0710   11.4750   20.4690 C.3       3 GLL5        0.0000 
     15 CA         13.7630   12.8820   23.9360 C.3       3 GLL5        0.0000 
     16 CA         13.4310   13.3460   26.2870 C.3       3 GLL5        0.0000 
     17 CA         11.9390   12.0770   28.0180 C.3       3 GLL5        0.0000 
     18 CA         12.1130   15.5140   30.2940 C.3       3 GLL5        0.0000 
     19 CA         12.6490   15.7470   33.4300 C.3       3 GLL5        0.0000 
     20 CA          6.9040   10.5090   21.9490 C.3       3 GLL5        0.0000 
     21 CA         -1.2180   11.4980   22.6480 C.3       3 GLL5        0.0000 
     22 N          16.1430   16.5640   29.2570 N.am      4 SEP1        0.0000 
     23 N          14.2630   11.4360   30.1140 N.am      4 SEP1        0.0000 
     24 N          11.7140   15.9710   21.6070 N.am      4 SEP1        0.0000 
     25 O          15.7580    5.2650   25.3520 O.2       5 ALP2        0.0000 
     26 O          12.8580   17.0380   25.9860 O.2       5 ALP2        0.0000 
     27 CA         18.0060   14.6170   30.3550 C.3       6 GLP5        0.0000 
     28 CA         21.0100   13.8490   25.7570 C.3       6 GLP5        0.0000 
     29 CA         20.8410   13.9230   24.3660 C.3       6 GLP5        0.0000 
     30 CA         18.0340    7.1390   23.3690 C.3       6 GLP5        0.0000 
     31 CA         21.6880   11.7150   24.1320 C.3       6 GLP5        0.0000 
     32 CA         10.8260    4.7420   29.3790 C.3       6 GLP5        0.0000 
     33 CA         13.4680    4.1610   30.9710 C.3       6 GLP5        0.0000 
     34 CA         14.8410    7.1600   33.5050 C.3       6 GLP5        0.0000 
     35 CA         11.7370    1.6220   23.1880 C.3       6 GLP5        0.0000 
     36 CA         15.1820   12.3280   20.3490 C.3       6 GLP5        0.0000 
     37 CA         18.5730    7.9060   22.3520 C.3       6 GLP5        0.0000 
     38 CA         15.9080   11.3130   19.7230 C.3       6 GLP5        0.0000 
     39 CA          7.7530   10.8400   18.1310 C.3       6 GLP5        0.0000 
     40 CA         15.8090   13.1730   21.2610 C.3       6 GLP5        0.0000 
     41 CA         16.1250   16.6050   24.8120 C.3       6 GLP5        0.0000 
     42 CA         14.1590   11.4940   31.4820 C.3       6 GLP5        0.0000 
     43 CA         15.7540   14.6870   31.4080 C.3       6 GLP5        0.0000 
     44 CA         12.9470   12.1330   33.4420 C.3       6 GLP5        0.0000 
     45 CA          5.7010    7.6080   18.7730 C.3       6 GLP5        0.0000 
     46 CA          6.7760   11.8170   18.3560 C.3       6 GLP5        0.0000 
     47 CA         -4.4040   10.5310   19.7250 C.3       6 GLP5        0.0000 
     48 CA         17.1560   13.0080   21.5570 C.3       6 GLP5        0.0000 
     49 CA         13.0340   12.0640   32.0560 C.3       6 GLP5        0.0000 
     50 N          15.8545   15.3625   28.3625 N.am      7 SEC1        0.0000 
     51 N          15.3300   10.7570   29.5775 N.am      7 SEC1        0.0000 
     52 N          11.8435   15.4965   22.9525 N.am      7 SEC1        0.0000 
     53 O          15.2320    5.8420   26.5160 O.2       8 ALC2        0.0000 
     54 O          12.4155   16.0300   25.1420 O.2       8 ALC2        0.0000 
     55 CA         17.9505   13.5905   28.4035 C.3       9 GLC5        0.0000 
     56 CA         19.4525   13.2065   26.1045 C.3       9 GLC5        0.0000 
     57 CA         19.3170   13.0410   24.6760 C.3       9 GLC5        0.0000 
     58 CA         17.7940    8.9100   24.1130 C.3       9 GLC5        0.0000 
     59 CA         19.6210   11.1980   24.4945 C.3       9 GLC5        0.0000 
     60 CA         11.5670    6.4650   28.5645 C.3       9 GLC5        0.0000 
     61 CA         13.6340    6.0825   30.3505 C.3       9 GLC5        0.0000 
     62 CA         14.3205    7.5820   31.6175 C.3       9 GLC5        0.0000 
     63 CA         12.1710    3.5965   23.1700 C.3       9 GLC5        0.0000 
     64 CA         14.2630   10.9405   21.2170 C.3       9 GLC5        0.0000 
     65 CA         16.5530    8.3500   21.9300 C.3       9 GLC5        0.0000 
     66 CA         15.2205   10.0535   20.6155 C.3       9 GLC5        0.0000 
     67 CA          9.4120   11.1575   19.3000 C.3       9 GLC5        0.0000 
     68 CA         13.1265   11.9015   20.4090 C.3       9 GLC5        0.0000 
     69 CA         14.7860   13.0275   22.5985 C.3       9 GLC5        0.0000 
     70 CA         14.9440   14.7435   24.3740 C.3       9 GLC5        0.0000 
     71 CA         14.7780   14.9755   25.5495 C.3       9 GLC5        0.0000 
     72 CA         13.0490   11.7855   29.7500 C.3       9 GLC5        0.0000 
     73 CA         13.9335   15.1005   30.8510 C.3       9 GLC5        0.0000 
     74 CA         14.2015   15.2170   32.4190 C.3       9 GLC5        0.0000 
     75 CA         12.7980   13.9400   33.4360 C.3       9 GLC5        0.0000 
     76 CA          6.3025    9.0585   20.3610 C.3       9 GLC5        0.0000 
     77 CA          6.8400   11.1630   20.1525 C.3       9 GLC5        0.0000 
     78 CA         -2.8110   11.0145   21.1865 C.3       9 GLC5        0.0000 
     79 CA         17.4147   12.2140   23.2392 C.3       9 GLC5        0.0000 
     80 CA         13.9525    9.8687   30.2460 C.3       9 GLC5        0.0000 
     81 CA         12.2676   13.7622   31.3374 C.3       9 GLC5        0.0000 
@<TRIPOS>BOND
@<TRIPOS>SUBSTRUCTURE
     1 SEL1        1 GROUP        1 Z    SEL  0     ROOT SEL Z 0
     2 ALL2        4 GROUP        1 Z    ALL  0     **** ALL Z 1
     3 GLL5        6 GROUP        1 Z    GLL  0     **** GLL Z 4
     4 SEP1       22 GROUP        1 Z    SEP  0     **** SEP Z 7
     5 ALP2       25 GROUP        1 Z    ALP  0     **** ALP Z 8
     6 GLP5       27 GROUP        1 Z    GLP  0     **** GLP Z 11
     7 SEC1       50 GROUP        1 Z    SEC  0     **** SEC Z 14
     8 ALC2       53 GROUP        1 Z    ALC  0     **** ALC Z 15
     9 GLC5       55 GROUP        1 Z    GLC  0     **** GLC Z 18
@<TRIPOS>SET

