1a7x_FKA_1_ligand
  -OEChem-08111718373D

143147  0     1  0  0  0  0  0999 V2000
   -2.0307   11.4828   24.5542 H   0  0  0  0  0  0  0  0  0  0  0  0
    0.0698   11.4942   25.6704 H   0  0  0  0  0  0  0  0  0  0  0  0
   -2.1008   11.5053   22.1783 H   0  0  0  0  0  0  0  0  0  0  0  0
    2.0859   11.4859   24.4163 H   0  0  0  0  0  0  0  0  0  0  0  0
   -0.0866   11.4939   20.9067 H   0  0  0  0  0  0  0  0  0  0  0  0
   10.0435    9.4772   23.0436 H   0  0  0  0  0  0  0  0  0  0  0  0
   12.7293   15.3644   27.6413 H   0  0  0  0  0  0  0  0  0  0  0  0
   11.6556    8.3806   21.6552 H   0  0  0  0  0  0  0  0  0  0  0  0
   12.2398    9.1576   20.3431 H   0  0  0  0  0  0  0  0  0  0  0  0
   10.0246   14.0927   23.3267 H   0  0  0  0  0  0  0  0  0  0  0  0
   11.1779   13.0358   22.8583 H   0  0  0  0  0  0  0  0  0  0  0  0
   18.6459   12.3952   24.5204 H   0  0  0  0  0  0  0  0  0  0  0  0
   17.0338   12.6523   24.5615 H   0  0  0  0  0  0  0  0  0  0  0  0
   18.2831   10.1649   25.3064 H   0  0  0  0  0  0  0  0  0  0  0  0
   17.5014   10.4145   23.8946 H   0  0  0  0  0  0  0  0  0  0  0  0
   18.7486   12.1939   26.8186 H   0  0  0  0  0  0  0  0  0  0  0  0
   17.9177   13.5627   26.4982 H   0  0  0  0  0  0  0  0  0  0  0  0
    9.6391   14.7997   28.1607 H   0  0  0  0  0  0  0  0  0  0  0  0
   10.4090   16.2348   28.2794 H   0  0  0  0  0  0  0  0  0  0  0  0
    8.5065   16.3287   29.6022 H   0  0  0  0  0  0  0  0  0  0  0  0
    8.9202   14.9422   30.3593 H   0  0  0  0  0  0  0  0  0  0  0  0
   12.4077   16.3774   29.8844 H   0  0  0  0  0  0  0  0  0  0  0  0
   12.9133   15.0050   30.6108 H   0  0  0  0  0  0  0  0  0  0  0  0
   13.8708    9.6814   24.0873 H   0  0  0  0  0  0  0  0  0  0  0  0
   12.2619    9.5264   23.8546 H   0  0  0  0  0  0  0  0  0  0  0  0
   11.6631    8.7943   28.2153 H   0  0  0  0  0  0  0  0  0  0  0  0
   12.0904    7.2373   27.9708 H   0  0  0  0  0  0  0  0  0  0  0  0
   15.9345    9.5106   25.3955 H   0  0  0  0  0  0  0  0  0  0  0  0
   15.5537   11.0864   25.1989 H   0  0  0  0  0  0  0  0  0  0  0  0
    9.0413   12.0296   22.0009 H   0  0  0  0  0  0  0  0  0  0  0  0
   17.0477   12.1151   28.2780 H   0  0  0  0  0  0  0  0  0  0  0  0
   11.1745   13.7896   29.5965 H   0  0  0  0  0  0  0  0  0  0  0  0
   13.8183   14.2529   26.1212 H   0  0  0  0  0  0  0  0  0  0  0  0
   13.5293   10.5332   22.0147 H   0  0  0  0  0  0  0  0  0  0  0  0
   13.8434    9.4712   28.2666 H   0  0  0  0  0  0  0  0  0  0  0  0
   12.3950   11.9142   25.1786 H   0  0  0  0  0  0  0  0  0  0  0  0
   13.0853    6.5730   25.7299 H   0  0  0  0  0  0  0  0  0  0  0  0
   10.9312   13.9030   25.5858 H   0  0  0  0  0  0  0  0  0  0  0  0
   10.2951   17.4535   30.6028 H   0  0  0  0  0  0  0  0  0  0  0  0
   10.9306   14.9461   31.8511 H   0  0  0  0  0  0  0  0  0  0  0  0
   14.1338    7.3653   23.6567 H   0  0  0  0  0  0  0  0  0  0  0  0
   12.2687    9.3369   26.0321 H   0  0  0  0  0  0  0  0  0  0  0  0
   10.3569   12.1520   20.6475 H   0  0  0  0  0  0  0  0  0  0  0  0
   11.9683   11.9112   20.5369 H   0  0  0  0  0  0  0  0  0  0  0  0
   10.9517   11.0991   19.5500 H   0  0  0  0  0  0  0  0  0  0  0  0
   11.3667   12.2652   28.8162 H   0  0  0  0  0  0  0  0  0  0  0  0
   11.3843   11.6516   27.3030 H   0  0  0  0  0  0  0  0  0  0  0  0
   12.6800   11.4578   28.2777 H   0  0  0  0  0  0  0  0  0  0  0  0
   14.6434    9.0314   20.5429 H   0  0  0  0  0  0  0  0  0  0  0  0
   15.3619    9.0422   22.0093 H   0  0  0  0  0  0  0  0  0  0  0  0
   14.3738    7.8104   21.5933 H   0  0  0  0  0  0  0  0  0  0  0  0
   13.1149    8.4711   30.2889 H   0  0  0  0  0  0  0  0  0  0  0  0
   13.6428    7.0171   29.7657 H   0  0  0  0  0  0  0  0  0  0  0  0
   14.7133    8.2090   30.0819 H   0  0  0  0  0  0  0  0  0  0  0  0
   14.5169   12.2728   24.1821 H   0  0  0  0  0  0  0  0  0  0  0  0
   13.3557   12.5773   23.0751 H   0  0  0  0  0  0  0  0  0  0  0  0
   14.1089   13.8142   23.8296 H   0  0  0  0  0  0  0  0  0  0  0  0
   13.0435   16.3294   34.1408 H   0  0  0  0  0  0  0  0  0  0  0  0
   12.0692   15.0508   33.8533 H   0  0  0  0  0  0  0  0  0  0  0  0
   13.3837   15.3024   32.9176 H   0  0  0  0  0  0  0  0  0  0  0  0
   11.8671    5.0757   22.6936 H   0  0  0  0  0  0  0  0  0  0  0  0
   13.4369    5.5159   22.5998 H   0  0  0  0  0  0  0  0  0  0  0  0
   12.7730    5.1631   24.0494 H   0  0  0  0  0  0  0  0  0  0  0  0
    8.9078    8.8077   26.0101 H   0  0  0  0  0  0  0  0  0  0  0  0
    9.8718    9.1914   27.2711 H   0  0  0  0  0  0  0  0  0  0  0  0
   10.0789    9.9315   25.8303 H   0  0  0  0  0  0  0  0  0  0  0  0
    2.2902   11.2026   20.9577 H   0  0  0  0  0  0  0  0  0  0  0  0
    2.7923   12.4241   21.9182 H   0  0  0  0  0  0  0  0  0  0  0  0
    7.2826   11.5908   23.6927 H   0  0  0  0  0  0  0  0  0  0  0  0
    7.8873   10.0746   23.7375 H   0  0  0  0  0  0  0  0  0  0  0  0
    7.3135    9.7322   21.4705 H   0  0  0  0  0  0  0  0  0  0  0  0
    6.8356   11.2869   21.3244 H   0  0  0  0  0  0  0  0  0  0  0  0
    3.3897    9.8316   22.9095 H   0  0  0  0  0  0  0  0  0  0  0  0
   12.1445   15.6196   25.0812 H   0  0  0  0  0  0  0  0  0  0  0  0
    8.3372   17.2852   31.7943 H   0  0  0  0  0  0  0  0  0  0  0  0
   14.8599    5.8905   26.8451 H   0  0  0  0  0  0  0  0  0  0  0  0
   -1.1810   11.4900   24.0270 C   0  0  0  0  0  0  0  0  0  0  0  0
    0.0350   11.4920   24.6710 C   0  0  0  0  0  0  0  0  0  0  0  0
   -1.2180   11.4980   22.6480 C   0  0  0  0  0  0  0  0  0  0  0  0
    1.2050   11.4910   23.9430 C   0  0  0  0  0  0  0  0  0  0  0  0
   -0.0500   11.4960   21.9060 C   0  0  0  0  0  0  0  0  0  0  0  0
    1.1660   11.4970   22.5590 C   0  0  0  0  0  0  0  0  0  0  0  0
   10.0810   10.3010   22.4780 C   0  0  0  0  0  0  0  0  0  0  0  0
   10.9730   10.3460   21.4990 C   0  0  0  0  0  0  0  0  0  0  0  0
   16.1180    8.3890   27.4840 C   0  0  0  0  0  0  0  0  0  0  0  0
   16.3400    9.7360   27.8560 C   0  0  0  0  0  0  0  0  0  0  0  0
    9.6800   12.1690   23.9720 C   0  0  0  0  0  0  0  0  0  0  0  0
   15.5500   12.9690   27.1310 C   0  0  0  0  0  0  0  0  0  0  0  0
   12.3010   14.5500   28.0330 C   0  0  0  0  0  0  0  0  0  0  0  0
   12.5290   13.3860   27.4940 C   0  0  0  0  0  0  0  0  0  0  0  0
    4.7880   11.0610   22.0650 C   0  0  0  0  0  0  0  0  0  0  0  0
   12.0300    9.2440   21.3170 C   0  0  1  0  0  0  0  0  0  0  0  0
   10.5910   13.3210   23.6160 C   0  0  2  0  0  0  0  0  0  0  0  0
   17.7930   12.1590   24.9860 C   0  0  1  0  0  0  0  0  0  0  0  0
   17.5540   10.6810   24.8570 C   0  0  2  0  0  0  0  0  0  0  0  0
   17.8950   12.5640   26.4520 C   0  0  1  0  0  0  0  0  0  0  0  0
   10.1500   15.4040   28.7720 C   0  0  1  0  0  0  0  0  0  0  0  0
    9.2710   15.7790   29.9390 C   0  0  1  0  0  0  0  0  0  0  0  0
   12.1130   15.5140   30.2940 C   0  0  2  0  0  0  0  0  0  0  0  0
   13.1630    9.1950   23.5750 C   0  0  1  0  0  0  0  0  0  0  0  0
   12.3080    8.1880   27.7500 C   0  0  2  0  0  0  0  0  0  0  0  0
   16.2450   10.4500   25.5410 C   0  0  2  0  0  0  0  0  0  0  0  0
    9.1210   11.4180   22.7880 C   0  0  2  0  0  0  0  0  0  0  0  0
   16.7630   12.0800   27.3200 C   0  0  2  0  0  0  0  0  0  0  0  0
   11.4060   14.6920   29.2330 C   0  0  2  0  0  0  0  0  0  0  0  0
   13.4310   13.3460   26.2870 C   0  0  2  0  0  0  0  0  0  0  0  0
   13.3440    9.5530   22.0850 C   0  0  1  0  0  0  0  0  0  0  0  0
   13.6920    8.4830   28.2900 C   0  0  2  0  0  0  0  0  0  0  0  0
   12.7060   12.8540   25.0370 C   0  0  1  0  0  0  0  0  0  0  0  0
   13.1900    7.5410   25.5020 C   0  0  2  0  0  0  0  0  0  0  0  0
   11.4720   13.7780   24.7540 C   0  0  1  0  0  0  0  0  0  0  0  0
   10.0160   16.5730   30.9860 C   0  0  2  0  0  0  0  0  0  0  0  0
   11.2430   15.8180   31.4740 C   0  0  2  0  0  0  0  0  0  0  0  0
   13.2490    7.7120   23.9680 C   0  0  1  0  0  0  0  0  0  0  0  0
   12.1190    8.3720   26.2480 C   0  0  1  0  0  0  0  0  0  0  0  0
   14.7210    7.8020   27.3730 C   0  0  1  0  0  0  0  0  0  0  0  0
   11.0710   11.4750   20.4690 C   0  0  0  0  0  0  0  0  0  0  0  0
   11.9390   12.0770   28.0180 C   0  0  0  0  0  0  0  0  0  0  0  0
   14.5330    8.7940   21.5080 C   0  0  0  0  0  0  0  0  0  0  0  0
   13.8000    8.0040   29.7300 C   0  0  0  0  0  0  0  0  0  0  0  0
   13.7630   12.8820   23.9360 C   0  0  0  0  0  0  0  0  0  0  0  0
   12.6490   15.7470   33.4300 C   0  0  0  0  0  0  0  0  0  0  0  0
   12.6050    5.5710   23.1520 C   0  0  0  0  0  0  0  0  0  0  0  0
    9.8340    9.0720   26.2790 C   0  0  0  0  0  0  0  0  0  0  0  0
    2.4600   11.4810   21.9030 C   0  0  1  0  0  0  0  0  0  0  0  0
    7.7640   10.8880   23.1690 C   0  0  2  0  0  0  0  0  0  0  0  0
    6.9040   10.5090   21.9490 C   0  0  2  0  0  0  0  0  0  0  0  0
   16.5030   10.6880   26.9490 N   0  0  0  0  0  0  0  0  0  0  0  0
    3.5520   10.6610   22.3750 N   0  0  0  0  0  0  0  0  0  0  0  0
   17.0580    7.6350   27.2190 O   0  0  0  0  0  0  0  0  0  0  0  0
   16.3970   10.0780   29.0410 O   0  0  0  0  0  0  0  0  0  0  0  0
    9.4270   11.8560   25.1390 O   0  0  0  0  0  0  0  0  0  0  0  0
   15.5660   14.1610   27.4680 O   0  0  0  0  0  0  0  0  0  0  0  0
    5.0660   12.1420   21.5470 O   0  0  0  0  0  0  0  0  0  0  0  0
   14.4790   12.4140   26.5780 O   0  0  0  0  0  0  0  0  0  0  0  0
   14.4530    8.0180   25.9850 O   0  0  0  0  0  0  0  0  0  0  0  0
   11.9730   15.0220   24.2980 O   0  0  0  0  0  0  0  0  0  0  0  0
    9.1510   16.7890   32.0970 O   0  0  0  0  0  0  0  0  0  0  0  0
   14.7060    6.4190   27.6800 O   0  0  0  0  0  0  0  0  0  0  0  0
    5.6960   10.1800   22.3990 O   0  0  0  0  0  0  0  0  0  0  0  0
   11.8580   16.5510   32.5350 O   0  0  0  0  0  0  0  0  0  0  0  0
   12.2280    6.9500   23.3150 O   0  0  0  0  0  0  0  0  0  0  0  0
   10.7670    8.0360   25.8810 O   0  0  0  0  0  0  0  0  0  0  0  0
  1 77  1  0  0  0  0
  2 78  1  0  0  0  0
  3 79  1  0  0  0  0
  4 80  1  0  0  0  0
  5 81  1  0  0  0  0
  6 83  1  0  0  0  0
  7 89  1  0  0  0  0
  8 92  1  0  0  0  0
  9 92  1  0  0  0  0
 10 93  1  0  0  0  0
 11 93  1  0  0  0  0
 12 94  1  0  0  0  0
 13 94  1  0  0  0  0
 14 95  1  0  0  0  0
 15 95  1  0  0  0  0
 16 96  1  0  0  0  0
 17 96  1  0  0  0  0
 18 97  1  0  0  0  0
 19 97  1  0  0  0  0
 20 98  1  0  0  0  0
 21 98  1  0  0  0  0
 22 99  1  0  0  0  0
 23 99  1  0  0  0  0
 24100  1  0  0  0  0
 25100  1  0  0  0  0
 26101  1  0  0  0  0
 27101  1  0  0  0  0
 28102  1  0  0  0  0
 29102  1  0  0  0  0
 30103  1  0  0  0  0
 31104  1  0  0  0  0
 32105  1  0  0  0  0
 33106  1  0  0  0  0
 34107  1  0  0  0  0
 35108  1  0  0  0  0
 36109  1  0  0  0  0
 37110  1  0  0  0  0
 38111  1  0  0  0  0
 39112  1  0  0  0  0
 40113  1  0  0  0  0
 41114  1  0  0  0  0
 42115  1  0  0  0  0
 43117  1  0  0  0  0
 44117  1  0  0  0  0
 45117  1  0  0  0  0
 46118  1  0  0  0  0
 47118  1  0  0  0  0
 48118  1  0  0  0  0
 49119  1  0  0  0  0
 50119  1  0  0  0  0
 51119  1  0  0  0  0
 52120  1  0  0  0  0
 53120  1  0  0  0  0
 54120  1  0  0  0  0
 55121  1  0  0  0  0
 56121  1  0  0  0  0
 57121  1  0  0  0  0
 58122  1  0  0  0  0
 59122  1  0  0  0  0
 60122  1  0  0  0  0
 61123  1  0  0  0  0
 62123  1  0  0  0  0
 63123  1  0  0  0  0
 64124  1  0  0  0  0
 65124  1  0  0  0  0
 66124  1  0  0  0  0
 67125  1  0  0  0  0
 68125  1  0  0  0  0
 69126  1  0  0  0  0
 70126  1  0  0  0  0
 71127  1  0  0  0  0
 72127  1  0  0  0  0
 73129  1  0  0  0  0
 74137  1  0  0  0  0
 75138  1  0  0  0  0
 76139  1  0  0  0  0
 77 78  2  0  0  0  0
 77 79  1  0  0  0  0
 78 80  1  0  0  0  0
 79 81  2  0  0  0  0
 80 82  2  0  0  0  0
 81 82  1  0  0  0  0
 82125  1  0  0  0  0
 83 84  2  0  0  0  0
 83103  1  0  0  0  0
 84 92  1  0  0  0  0
 84117  1  0  0  0  0
 85 86  1  0  0  0  0
 85116  1  0  0  0  0
 85130  2  0  0  0  0
 86128  1  0  0  0  0
 86131  2  0  0  0  0
 87 93  1  0  0  0  0
 87103  1  0  0  0  0
 87132  2  0  0  0  0
 88104  1  0  0  0  0
 88133  2  0  0  0  0
 88135  1  0  0  0  0
 89 90  2  0  0  0  0
 89105  1  0  0  0  0
 90106  1  0  0  0  0
 90118  1  0  0  0  0
 91129  1  0  0  0  0
 91134  2  0  0  0  0
 91140  1  0  0  0  0
 92107  1  0  0  0  0
 93111  1  0  0  0  0
 94 95  1  0  0  0  0
 94 96  1  0  0  0  0
 95102  1  0  0  0  0
 96104  1  0  0  0  0
 97 98  1  0  0  0  0
 97105  1  0  0  0  0
 98112  1  0  0  0  0
 99105  1  0  0  0  0
 99113  1  0  0  0  0
100107  1  0  0  0  0
100114  1  0  0  0  0
101108  1  0  0  0  0
101115  1  0  0  0  0
102128  1  0  0  0  0
103126  1  0  0  0  0
104128  1  0  0  0  0
106109  1  0  0  0  0
106135  1  0  0  0  0
107119  1  0  0  0  0
108116  1  0  0  0  0
108120  1  0  0  0  0
109111  1  0  0  0  0
109121  1  0  0  0  0
110114  1  0  0  0  0
110115  1  0  0  0  0
110136  1  0  0  0  0
111137  1  0  0  0  0
112113  1  0  0  0  0
112138  1  0  0  0  0
113141  1  0  0  0  0
114142  1  0  0  0  0
115143  1  0  0  0  0
116136  1  0  0  0  0
116139  1  0  0  0  0
122141  1  0  0  0  0
123142  1  0  0  0  0
124143  1  0  0  0  0
125129  1  0  0  0  0
126127  1  0  0  0  0
127140  1  0  0  0  0
M  END
> <scpdb_id>
1a7x_1

$$$$
