@<TRIPOS>MOLECULE
1a7x_FKA_1_ligand
  143   147     1     0     0
SMALL
NO_CHARGES


@<TRIPOS>ATOM
     1 O1          14.4790    12.4140    26.5780 O.3          1 FKA201   0.0000
     2 C1          15.5500    12.9690    27.1310 C.2          1 FKA201   0.0000
     3 O2          15.5660    14.1610    27.4680 O.2          1 FKA201   0.0000
     4 C2          16.7630    12.0800    27.3200 C.3          1 FKA201   0.0000
     5 C3          17.8950    12.5640    26.4520 C.3          1 FKA201   0.0000
     6 C4          17.7930    12.1590    24.9860 C.3          1 FKA201   0.0000
     7 C5          17.5540    10.6810    24.8570 C.3          1 FKA201   0.0000
     8 C6          16.2450    10.4500    25.5410 C.3          1 FKA201   0.0000
     9 N1          16.5030    10.6880    26.9490 N.am         1 FKA201   0.0000
    10 C7          16.3400     9.7360    27.8560 C.2          1 FKA201   0.0000
    11 O3          16.3970    10.0780    29.0410 O.2          1 FKA201   0.0000
    12 C8          16.1180     8.3890    27.4840 C.2          1 FKA201   0.0000
    13 O4          17.0580     7.6350    27.2190 O.2          1 FKA201   0.0000
    14 C9          14.7210     7.8020    27.3730 C.3          1 FKA201   0.0000
    15 C10         13.6920     8.4830    28.2900 C.3          1 FKA201   0.0000
    16 C11         12.3080     8.1880    27.7500 C.3          1 FKA201   0.0000
    17 C12         12.1190     8.3720    26.2480 C.3          1 FKA201   0.0000
    18 C13         13.1900     7.5410    25.5020 C.3          1 FKA201   0.0000
    19 O5          14.4530     8.0180    25.9850 O.3          1 FKA201   0.0000
    20 O6          14.7060     6.4190    27.6800 O.3          1 FKA201   0.0000
    21 C34         13.8000     8.0040    29.7300 C.3          1 FKA201   0.0000
    22 O7          10.7670     8.0360    25.8810 O.3          1 FKA201   0.0000
    23 C42          9.8340     9.0720    26.2790 C.3          1 FKA201   0.0000
    24 C14         13.2490     7.7120    23.9680 C.3          1 FKA201   0.0000
    25 O8          12.2280     6.9500    23.3150 O.3          1 FKA201   0.0000
    26 C43         12.6050     5.5710    23.1520 C.3          1 FKA201   0.0000
    27 C15         13.1630     9.1950    23.5750 C.3          1 FKA201   0.0000
    28 C16         13.3440     9.5530    22.0850 C.3          1 FKA201   0.0000
    29 C35         14.5330     8.7940    21.5080 C.3          1 FKA201   0.0000
    30 C17         12.0300     9.2440    21.3170 C.3          1 FKA201   0.0000
    31 C18         10.9730    10.3460    21.4990 C.2          1 FKA201   0.0000
    32 C36         11.0710    11.4750    20.4690 C.3          1 FKA201   0.0000
    33 C19         10.0810    10.3010    22.4780 C.2          1 FKA201   0.0000
    34 C20          9.1210    11.4180    22.7880 C.3          1 FKA201   0.0000
    35 C37          7.7640    10.8880    23.1690 C.3          1 FKA201   0.0000
    36 C21          9.6800    12.1690    23.9720 C.2          1 FKA201   0.0000
    37 O9           9.4270    11.8560    25.1390 O.2          1 FKA201   0.0000
    38 C22         10.5910    13.3210    23.6160 C.3          1 FKA201   0.0000
    39 C23         11.4720    13.7780    24.7540 C.3          1 FKA201   0.0000
    40 O10         11.9730    15.0220    24.2980 O.3          1 FKA201   0.0000
    41 C24         12.7060    12.8540    25.0370 C.3          1 FKA201   0.0000
    42 C40         13.7630    12.8820    23.9360 C.3          1 FKA201   0.0000
    43 C25         13.4310    13.3460    26.2870 C.3          1 FKA201   0.0000
    44 C26         12.5290    13.3860    27.4940 C.2          1 FKA201   0.0000
    45 C41         11.9390    12.0770    28.0180 C.3          1 FKA201   0.0000
    46 C27         12.3010    14.5500    28.0330 C.2          1 FKA201   0.0000
    47 C28         11.4060    14.6920    29.2330 C.3          1 FKA201   0.0000
    48 C29         12.1130    15.5140    30.2940 C.3          1 FKA201   0.0000
    49 C30         11.2430    15.8180    31.4740 C.3          1 FKA201   0.0000
    50 C31         10.0160    16.5730    30.9860 C.3          1 FKA201   0.0000
    51 C32          9.2710    15.7790    29.9390 C.3          1 FKA201   0.0000
    52 C33         10.1500    15.4040    28.7720 C.3          1 FKA201   0.0000
    53 O11         11.8580    16.5510    32.5350 O.3          1 FKA201   0.0000
    54 C44         12.6490    15.7470    33.4300 C.3          1 FKA201   0.0000
    55 O12          9.1510    16.7890    32.0970 O.3          1 FKA201   0.0000
    56 C51          6.9040    10.5090    21.9490 C.3          1 FKA201   0.0000
    57 O17          5.6960    10.1800    22.3990 O.3          1 FKA201   0.0000
    58 C50          4.7880    11.0610    22.0650 C.2          1 FKA201   0.0000
    59 O23          5.0660    12.1420    21.5470 O.2          1 FKA201   0.0000
    60 N2           3.5520    10.6610    22.3750 N.am         1 FKA201   0.0000
    61 C49          2.4600    11.4810    21.9030 C.3          1 FKA201   0.0000
    62 C47          1.1660    11.4970    22.5590 C.ar         1 FKA201   0.0000
    63 C46          1.2050    11.4910    23.9430 C.ar         1 FKA201   0.0000
    64 C45          0.0350    11.4920    24.6710 C.ar         1 FKA201   0.0000
    65 C39         -1.1810    11.4900    24.0270 C.ar         1 FKA201   0.0000
    66 C38         -1.2180    11.4980    22.6480 C.ar         1 FKA201   0.0000
    67 C48         -0.0500    11.4960    21.9060 C.ar         1 FKA201   0.0000
    68 H1          17.0477    12.1151    28.2780 H            1 FKA201   0.0000
    69 H2          18.7486    12.1939    26.8186 H            1 FKA201   0.0000
    70 H3          17.9177    13.5627    26.4982 H            1 FKA201   0.0000
    71 H4          18.6459    12.3952    24.5204 H            1 FKA201   0.0000
    72 H5          17.0338    12.6523    24.5615 H            1 FKA201   0.0000
    73 H6          18.2831    10.1649    25.3064 H            1 FKA201   0.0000
    74 H7          17.5014    10.4145    23.8946 H            1 FKA201   0.0000
    75 H8          15.9345     9.5106    25.3955 H            1 FKA201   0.0000
    76 H9          15.5537    11.0864    25.1989 H            1 FKA201   0.0000
    77 H10         13.8434     9.4712    28.2666 H            1 FKA201   0.0000
    78 H11         11.6631     8.7943    28.2153 H            1 FKA201   0.0000
    79 H12         12.0904     7.2373    27.9708 H            1 FKA201   0.0000
    80 H13         12.2687     9.3369    26.0321 H            1 FKA201   0.0000
    81 H14         13.0853     6.5730    25.7299 H            1 FKA201   0.0000
    82 H15         14.8599     5.8905    26.8451 H            1 FKA201   0.0000
    83 H16         13.1149     8.4711    30.2889 H            1 FKA201   0.0000
    84 H17         13.6428     7.0171    29.7657 H            1 FKA201   0.0000
    85 H18         14.7133     8.2090    30.0819 H            1 FKA201   0.0000
    86 H19          8.9078     8.8077    26.0101 H            1 FKA201   0.0000
    87 H20          9.8718     9.1914    27.2711 H            1 FKA201   0.0000
    88 H21         10.0789     9.9315    25.8303 H            1 FKA201   0.0000
    89 H22         14.1338     7.3653    23.6567 H            1 FKA201   0.0000
    90 H23         11.8671     5.0757    22.6936 H            1 FKA201   0.0000
    91 H24         13.4369     5.5159    22.5998 H            1 FKA201   0.0000
    92 H25         12.7730     5.1631    24.0494 H            1 FKA201   0.0000
    93 H26         13.8708     9.6814    24.0873 H            1 FKA201   0.0000
    94 H27         12.2619     9.5264    23.8546 H            1 FKA201   0.0000
    95 H28         13.5293    10.5332    22.0147 H            1 FKA201   0.0000
    96 H29         14.6434     9.0314    20.5429 H            1 FKA201   0.0000
    97 H30         15.3619     9.0422    22.0093 H            1 FKA201   0.0000
    98 H31         14.3738     7.8104    21.5933 H            1 FKA201   0.0000
    99 H32         11.6556     8.3806    21.6552 H            1 FKA201   0.0000
   100 H33         12.2398     9.1576    20.3431 H            1 FKA201   0.0000
   101 H34         10.3569    12.1520    20.6475 H            1 FKA201   0.0000
   102 H35         11.9683    11.9112    20.5369 H            1 FKA201   0.0000
   103 H36         10.9517    11.0991    19.5500 H            1 FKA201   0.0000
   104 H37         10.0435     9.4772    23.0436 H            1 FKA201   0.0000
   105 H38          9.0413    12.0296    22.0009 H            1 FKA201   0.0000
   106 H39          7.2826    11.5908    23.6927 H            1 FKA201   0.0000
   107 H40          7.8873    10.0746    23.7375 H            1 FKA201   0.0000
   108 H41         10.0246    14.0927    23.3267 H            1 FKA201   0.0000
   109 H42         11.1779    13.0358    22.8583 H            1 FKA201   0.0000
   110 H43         10.9312    13.9030    25.5858 H            1 FKA201   0.0000
   111 H44         12.1445    15.6196    25.0812 H            1 FKA201   0.0000
   112 H45         12.3950    11.9142    25.1786 H            1 FKA201   0.0000
   113 H46         14.5169    12.2728    24.1821 H            1 FKA201   0.0000
   114 H47         13.3557    12.5773    23.0751 H            1 FKA201   0.0000
   115 H48         14.1089    13.8142    23.8296 H            1 FKA201   0.0000
   116 H49         13.8183    14.2529    26.1212 H            1 FKA201   0.0000
   117 H50         11.3667    12.2652    28.8162 H            1 FKA201   0.0000
   118 H51         11.3843    11.6516    27.3030 H            1 FKA201   0.0000
   119 H52         12.6800    11.4578    28.2777 H            1 FKA201   0.0000
   120 H53         12.7293    15.3644    27.6413 H            1 FKA201   0.0000
   121 H54         11.1745    13.7896    29.5965 H            1 FKA201   0.0000
   122 H55         12.4077    16.3774    29.8844 H            1 FKA201   0.0000
   123 H56         12.9133    15.0050    30.6108 H            1 FKA201   0.0000
   124 H57         10.9306    14.9461    31.8511 H            1 FKA201   0.0000
   125 H58         10.2951    17.4535    30.6028 H            1 FKA201   0.0000
   126 H59          8.5065    16.3287    29.6022 H            1 FKA201   0.0000
   127 H60          8.9202    14.9422    30.3593 H            1 FKA201   0.0000
   128 H61          9.6391    14.7997    28.1607 H            1 FKA201   0.0000
   129 H62         10.4090    16.2348    28.2794 H            1 FKA201   0.0000
   130 H63         13.0435    16.3294    34.1408 H            1 FKA201   0.0000
   131 H64         12.0692    15.0508    33.8533 H            1 FKA201   0.0000
   132 H65         13.3837    15.3024    32.9176 H            1 FKA201   0.0000
   133 H66          8.3372    17.2852    31.7943 H            1 FKA201   0.0000
   134 H67          7.3135     9.7322    21.4705 H            1 FKA201   0.0000
   135 H68          6.8356    11.2869    21.3244 H            1 FKA201   0.0000
   136 H69          3.3897     9.8316    22.9095 H            1 FKA201   0.0000
   137 H70          2.2902    11.2026    20.9577 H            1 FKA201   0.0000
   138 H71          2.7923    12.4241    21.9182 H            1 FKA201   0.0000
   139 H72          2.0859    11.4859    24.4163 H            1 FKA201   0.0000
   140 H73          0.0698    11.4942    25.6704 H            1 FKA201   0.0000
   141 H74         -2.0307    11.4828    24.5542 H            1 FKA201   0.0000
   142 H75         -2.1008    11.5053    22.1783 H            1 FKA201   0.0000
   143 H76         -0.0866    11.4939    20.9067 H            1 FKA201   0.0000
@<TRIPOS>BOND
     1    1    2       1
     2    1   43       1
     3    2    3       2
     4    2    4       1
     5    4    5       1
     6    4    9       1
     7    5    6       1
     8    6    7       1
     9    7    8       1
    10    8    9       1
    11    9   10      am
    12   10   11       2
    13   10   12       1
    14   12   13       2
    15   12   14       1
    16   14   15       1
    17   14   19       1
    18   14   20       1
    19   15   16       1
    20   15   21       1
    21   16   17       1
    22   17   18       1
    23   17   22       1
    24   18   19       1
    25   18   24       1
    26   22   23       1
    27   24   25       1
    28   24   27       1
    29   25   26       1
    30   27   28       1
    31   28   29       1
    32   28   30       1
    33   30   31       1
    34   31   32       1
    35   31   33       2
    36   33   34       1
    37   34   35       1
    38   34   36       1
    39   35   56       1
    40   36   37       2
    41   36   38       1
    42   38   39       1
    43   39   40       1
    44   39   41       1
    45   41   42       1
    46   41   43       1
    47   43   44       1
    48   44   45       1
    49   44   46       2
    50   46   47       1
    51   47   48       1
    52   47   52       1
    53   48   49       1
    54   49   50       1
    55   49   53       1
    56   50   51       1
    57   50   55       1
    58   51   52       1
    59   53   54       1
    60   56   57       1
    61   57   58       1
    62   58   59       2
    63   58   60      am
    64   60   61       1
    65   61   62       1
    66   62   63      ar
    67   62   67      ar
    68   63   64      ar
    69   64   65      ar
    70   65   66      ar
    71   66   67      ar
    72    4   68       1
    73    5   69       1
    74    5   70       1
    75    6   71       1
    76    6   72       1
    77    7   73       1
    78    7   74       1
    79    8   75       1
    80    8   76       1
    81   15   77       1
    82   16   78       1
    83   16   79       1
    84   17   80       1
    85   18   81       1
    86   20   82       1
    87   21   83       1
    88   21   84       1
    89   21   85       1
    90   23   86       1
    91   23   87       1
    92   23   88       1
    93   24   89       1
    94   26   90       1
    95   26   91       1
    96   26   92       1
    97   27   93       1
    98   27   94       1
    99   28   95       1
   100   29   96       1
   101   29   97       1
   102   29   98       1
   103   30   99       1
   104   30  100       1
   105   32  101       1
   106   32  102       1
   107   32  103       1
   108   33  104       1
   109   34  105       1
   110   35  106       1
   111   35  107       1
   112   38  108       1
   113   38  109       1
   114   39  110       1
   115   40  111       1
   116   41  112       1
   117   42  113       1
   118   42  114       1
   119   42  115       1
   120   43  116       1
   121   45  117       1
   122   45  118       1
   123   45  119       1
   124   46  120       1
   125   47  121       1
   126   48  122       1
   127   48  123       1
   128   49  124       1
   129   50  125       1
   130   51  126       1
   131   51  127       1
   132   52  128       1
   133   52  129       1
   134   54  130       1
   135   54  131       1
   136   54  132       1
   137   55  133       1
   138   56  134       1
   139   56  135       1
   140   60  136       1
   141   61  137       1
   142   61  138       1
   143   63  139       1
   144   64  140       1
   145   65  141       1
   146   66  142       1
   147   67  143       1
@<TRIPOS>SUBSTRUCTURE
     1 FKA201      1 GROUP             4 B     FKA     0 **** FKA B 201
