#    Name: 100
#    Modification time : Tue Aug  8 23:56:55 2017

@<TRIPOS>MOLECULE
100
   36     0     9     0     0
SMALL
NO_CHARGES


@<TRIPOS>ATOM
      1 N          30.6910  -45.3720  177.6140 N.am      1 SEL1        0.0000 
      2 N          29.1600  -47.7010  178.6200 N.am      1 SEL1        0.0000 
      3 N          32.2060  -53.4550  175.5740 N.am      1 SEL1        0.0000 
      4 O          28.6050  -41.1620  179.7270 O.2       2 ALL2        0.0000 
      5 O          30.0000  -39.6790  181.4430 O.2       2 ALL2        0.0000 
      6 O          27.7860  -40.5830  188.1560 O.2       2 ALL2        0.0000 
      7 CA         30.7880  -53.1550  177.4870 C.3       3 GLL5        0.0000 
      8 CA         29.7010  -55.0140  178.6090 C.3       3 GLL5        0.0000 
      9 CA         30.9460  -50.7220  182.6200 C.3       3 GLL5        0.0000 
     10 CA         30.3370  -54.4630  177.4970 C.3       3 GLL5        0.0000 
     11 N          28.3730  -45.9700  175.9600 N.am      4 SEP1        0.0000 
     12 N          27.3200  -48.6090  176.2940 N.am      4 SEP1        0.0000 
     13 N          33.2540  -54.3880  172.9330 N.am      4 SEP1        0.0000 
     14 O          26.0480  -40.6050  180.4890 O.2       5 ALP2        0.0000 
     15 O          27.3120  -38.8460  180.7580 O.2       5 ALP2        0.0000 
     16 O          25.7690  -39.4530  190.7140 O.2       5 ALP2        0.0000 
     17 CA         27.9070  -51.2950  177.3820 C.3       6 GLP5        0.0000 
     18 CA         30.8680  -57.9590  176.5820 C.3       6 GLP5        0.0000 
     19 CA         26.6810  -57.0160  176.0030 C.3       6 GLP5        0.0000 
     20 CA         26.2990  -55.5900  178.0630 C.3       6 GLP5        0.0000 
     21 CA         29.5340  -54.0970  184.7400 C.3       6 GLP5        0.0000 
     22 CA         32.4380  -57.1430  177.0910 C.3       6 GLP5        0.0000 
     23 CA         27.6130  -52.2110  176.2350 C.3       6 GLP5        0.0000 
     24 N          29.5320  -45.6710  176.7870 N.am      7 SEC1        0.0000 
     25 N          28.2400  -48.1550  177.4570 N.am      7 SEC1        0.0000 
     26 N          32.7300  -53.9215  174.2535 N.am      7 SEC1        0.0000 
     27 O          27.3265  -40.8835  180.1080 O.2       8 ALC2        0.0000 
     28 O          28.6560  -39.2625  181.1005 O.2       8 ALC2        0.0000 
     29 O          26.7775  -40.0180  189.4350 O.2       8 ALC2        0.0000 
     30 CA         29.3475  -52.2250  177.4345 C.3       9 GLC5        0.0000 
     31 CA         30.2845  -56.4865  177.5955 C.3       9 GLC5        0.0000 
     32 CA         28.1910  -56.0150  177.3060 C.3       9 GLC5        0.0000 
     33 CA         28.0000  -55.3020  178.3360 C.3       9 GLC5        0.0000 
     34 CA         30.3290  -52.6750  183.4235 C.3       9 GLC5        0.0000 
     35 CA         31.5003  -55.4760  177.2915 C.3       9 GLC5        0.0000 
     36 CA         28.8160  -53.4748  177.1440 C.3       9 GLC5        0.0000 
@<TRIPOS>BOND
@<TRIPOS>SUBSTRUCTURE
     1 SEL1        1 GROUP        1 Z    SEL  0     ROOT SEL Z 0
     2 ALL2        4 GROUP        1 Z    ALL  0     **** ALL Z 1
     3 GLL5        7 GROUP        1 Z    GLL  0     **** GLL Z 4
     4 SEP1       11 GROUP        1 Z    SEP  0     **** SEP Z 7
     5 ALP2       14 GROUP        1 Z    ALP  0     **** ALP Z 8
     6 GLP5       17 GROUP        1 Z    GLP  0     **** GLP Z 11
     7 SEC1       24 GROUP        1 Z    SEC  0     **** SEC Z 14
     8 ALC2       27 GROUP        1 Z    ALC  0     **** ALC Z 15
     9 GLC5       30 GROUP        1 Z    GLC  0     **** GLC Z 18
@<TRIPOS>SET

