1a7k_NAD_4_ligand
  -OEChem-08111718373D

 70 74  0     1  0  0  0  0  0999 V2000
   29.3852  -55.9626  178.5882 H   0  0  0  0  0  0  0  0  0  0  0  0
   30.4709  -55.0293  176.6837 H   0  0  0  0  0  0  0  0  0  0  0  0
   29.0365  -54.6206  180.5410 H   0  0  0  0  0  0  0  0  0  0  0  0
   30.9231  -51.4298  178.6576 H   0  0  0  0  0  0  0  0  0  0  0  0
   24.6028  -40.3617  185.1230 H   0  0  0  0  0  0  0  0  0  0  0  0
   30.8110  -41.5576  184.3117 H   0  0  0  0  0  0  0  0  0  0  0  0
   30.4792  -41.9730  179.8606 H   0  0  0  0  0  0  0  0  0  0  0  0
   31.6756  -50.0487  182.7395 H   0  0  0  0  0  0  0  0  0  0  0  0
   30.7853  -41.4012  182.1917 H   0  0  0  0  0  0  0  0  0  0  0  0
   31.7822  -51.3610  180.8256 H   0  0  0  0  0  0  0  0  0  0  0  0
   28.4318  -43.5200  180.2817 H   0  0  0  0  0  0  0  0  0  0  0  0
   29.1269  -49.8033  182.7137 H   0  0  0  0  0  0  0  0  0  0  0  0
   27.9534  -40.8402  182.0540 H   0  0  0  0  0  0  0  0  0  0  0  0
   29.7041  -53.0474  181.7659 H   0  0  0  0  0  0  0  0  0  0  0  0
   31.0415  -43.9425  181.2844 H   0  0  0  0  0  0  0  0  0  0  0  0
   29.8924  -44.7365  182.1305 H   0  0  0  0  0  0  0  0  0  0  0  0
   29.0868  -48.5912  180.7505 H   0  0  0  0  0  0  0  0  0  0  0  0
   30.5025  -48.2726  181.4994 H   0  0  0  0  0  0  0  0  0  0  0  0
   27.1523  -40.3850  188.9038 H   0  0  0  0  0  0  0  0  0  0  0  0
   28.7560  -40.7310  188.3486 H   0  0  0  0  0  0  0  0  0  0  0  0
   31.6453  -51.1250  174.9254 H   0  0  0  0  0  0  0  0  0  0  0  0
   30.6125  -50.8629  176.2908 H   0  0  0  0  0  0  0  0  0  0  0  0
   27.7239  -41.4149  180.1266 H   0  0  0  0  0  0  0  0  0  0  0  0
   31.2464  -51.6621  184.3555 H   0  0  0  0  0  0  0  0  0  0  0  0
   29.1109  -39.3901  181.0880 H   0  0  0  0  0  0  0  0  0  0  0  0
   33.0053  -52.7663  181.9618 H   0  0  0  0  0  0  0  0  0  0  0  0
   29.7010  -55.0140  178.6090 C   0  0  0  0  0  0  0  0  0  0  0  0
   30.3370  -54.4630  177.4970 C   0  0  0  0  0  0  0  0  0  0  0  0
   29.5080  -54.2390  179.7460 C   0  0  0  0  0  0  0  0  0  0  0  0
   30.6060  -52.3780  178.6370 C   0  0  0  0  0  0  0  0  0  0  0  0
   25.5730  -40.5250  185.3020 C   0  0  0  0  0  0  0  0  0  0  0  0
   29.8790  -41.3590  184.6150 C   0  0  0  0  0  0  0  0  0  0  0  0
   30.7880  -53.1550  177.4870 C   0  0  0  0  0  0  0  0  0  0  0  0
   28.1740  -40.9220  185.8200 C   0  0  0  0  0  0  0  0  0  0  0  0
   27.7020  -40.9990  184.5320 C   0  0  0  0  0  0  0  0  0  0  0  0
   27.3350  -40.6500  186.8950 C   0  0  0  0  0  0  0  0  0  0  0  0
   31.4650  -52.6910  176.1880 C   0  0  0  0  0  0  0  0  0  0  0  0
   29.6670  -41.8460  180.4300 C   0  0  1  0  0  0  0  0  0  0  0  0
   30.9460  -50.7220  182.6200 C   0  0  1  0  0  0  0  0  0  0  0  0
   29.9720  -41.0720  181.7120 C   0  0  2  0  0  0  0  0  0  0  0  0
   31.3020  -51.7840  181.5940 C   0  0  2  0  0  0  0  0  0  0  0  0
   29.1000  -43.1770  180.9420 C   0  0  1  0  0  0  0  0  0  0  0  0
   29.7240  -50.1320  181.9820 C   0  0  1  0  0  0  0  0  0  0  0  0
   28.6960  -41.4100  182.4060 C   0  0  2  0  0  0  0  0  0  0  0  0
   29.9670  -52.3280  181.1230 C   0  0  2  0  0  0  0  0  0  0  0  0
   30.1060  -44.2950  181.2590 C   0  0  1  0  0  0  0  0  0  0  0  0
   29.9680  -48.9740  181.0280 C   0  0  1  0  0  0  0  0  0  0  0  0
   26.3870  -40.8070  184.2840 N   0  0  0  0  0  0  0  0  0  0  0  0
   26.0300  -40.4560  186.5620 N   0  0  0  0  0  0  0  0  0  0  0  0
   29.4900  -41.1380  185.8790 N   0  0  0  0  0  0  0  0  0  0  0  0
   28.7930  -41.2660  183.8280 N   0  0  0  0  0  0  0  0  0  0  0  0
   29.9710  -52.9400  179.7710 N   0  3  0  0  0  0  0  0  0  0  0  0
   27.7860  -40.5830  188.1560 N   0  0  0  0  0  0  0  0  0  0  0  0
   31.2210  -51.4590  175.7670 N   0  0  0  0  0  0  0  0  0  0  0  0
   30.6910  -45.3720  177.6140 O   0  5  0  0  0  0  0  0  0  0  0  0
   29.1600  -47.7010  178.6200 O   0  5  0  0  0  0  0  0  0  0  0  0
   32.2060  -53.4550  175.5740 O   0  0  0  0  0  0  0  0  0  0  0  0
   32.3440  -44.5790  179.4320 O   0  0  0  0  0  0  0  0  0  0  0  0
   31.3650  -48.6680  177.4950 O   0  0  0  0  0  0  0  0  0  0  0  0
   28.4050  -42.8050  182.1670 O   0  0  0  0  0  0  0  0  0  0  0  0
   29.0350  -51.2430  181.3060 O   0  0  0  0  0  0  0  0  0  0  0  0
   28.6050  -41.1620  179.7270 O   0  0  0  0  0  0  0  0  0  0  0  0
   30.4820  -51.2460  183.8630 O   0  0  0  0  0  0  0  0  0  0  0  0
   30.0000  -39.6790  181.4430 O   0  0  0  0  0  0  0  0  0  0  0  0
   32.0230  -52.9390  182.0340 O   0  0  0  0  0  0  0  0  0  0  0  0
   29.9200  -45.2160  180.1420 O   0  0  0  0  0  0  0  0  0  0  0  0
   30.6900  -49.3990  179.8440 O   0  0  0  0  0  0  0  0  0  0  0  0
   31.3760  -46.9950  179.4080 O   0  0  0  0  0  0  0  0  0  0  0  0
   31.1410  -45.4160  179.0460 P   0  0  1  0  0  0  0  0  0  0  0  0
   30.5890  -48.2300  178.7040 P   0  0  2  0  0  0  0  0  0  0  0  0
  1 27  1  0  0  0  0
  2 28  1  0  0  0  0
  3 29  1  0  0  0  0
  4 30  1  0  0  0  0
  5 31  1  0  0  0  0
  6 32  1  0  0  0  0
  7 38  1  0  0  0  0
  8 39  1  0  0  0  0
  9 40  1  0  0  0  0
 10 41  1  0  0  0  0
 11 42  1  0  0  0  0
 12 43  1  0  0  0  0
 13 44  1  0  0  0  0
 14 45  1  0  0  0  0
 15 46  1  0  0  0  0
 16 46  1  0  0  0  0
 17 47  1  0  0  0  0
 18 47  1  0  0  0  0
 19 53  1  0  0  0  0
 20 53  1  0  0  0  0
 21 54  1  0  0  0  0
 22 54  1  0  0  0  0
 23 62  1  0  0  0  0
 24 63  1  0  0  0  0
 25 64  1  0  0  0  0
 26 65  1  0  0  0  0
 27 28  1  0  0  0  0
 27 29  2  0  0  0  0
 28 33  2  0  0  0  0
 29 52  1  0  0  0  0
 30 33  1  0  0  0  0
 30 52  2  0  0  0  0
 31 48  1  0  0  0  0
 31 49  2  0  0  0  0
 32 50  2  0  0  0  0
 32 51  1  0  0  0  0
 33 37  1  0  0  0  0
 34 35  1  0  0  0  0
 34 36  2  0  0  0  0
 34 50  1  0  0  0  0
 35 48  2  0  0  0  0
 35 51  1  0  0  0  0
 36 49  1  0  0  0  0
 36 53  1  0  0  0  0
 37 54  1  0  0  0  0
 37 57  2  0  0  0  0
 38 40  1  0  0  0  0
 38 42  1  0  0  0  0
 38 62  1  0  0  0  0
 39 41  1  0  0  0  0
 39 43  1  0  0  0  0
 39 63  1  0  0  0  0
 40 44  1  0  0  0  0
 40 64  1  0  0  0  0
 41 45  1  0  0  0  0
 41 65  1  0  0  0  0
 42 46  1  0  0  0  0
 42 60  1  0  0  0  0
 43 47  1  0  0  0  0
 43 61  1  0  0  0  0
 44 51  1  0  0  0  0
 44 60  1  0  0  0  0
 45 52  1  0  0  0  0
 45 61  1  0  0  0  0
 46 66  1  0  0  0  0
 47 67  1  0  0  0  0
 55 69  1  0  0  0  0
 56 70  1  0  0  0  0
 58 69  2  0  0  0  0
 59 70  2  0  0  0  0
 66 69  1  0  0  0  0
 67 70  1  0  0  0  0
 68 69  1  0  0  0  0
 68 70  1  0  0  0  0
M  CHG  3  55  -1  56  -1  52   1
M  END
> <scpdb_id>
1a7k_4

$$$$
