@<TRIPOS>MOLECULE
1a7k_NAD_4_ligand
   70    74     1     0     0
SMALL
NO_CHARGES


@<TRIPOS>ATOM
     1 PA          31.1410   -45.4160   179.0460 P.3          1 NAD363   0.0000
     2 O1A         32.3440   -44.5790   179.4320 O.co2        1 NAD363   0.0000
     3 O2A         30.6910   -45.3720   177.6140 O.co2        1 NAD363  -1.0000
     4 O5B         29.9200   -45.2160   180.1420 O.3          1 NAD363   0.0000
     5 C5B         30.1060   -44.2950   181.2590 C.3          1 NAD363   0.0000
     6 C4B         29.1000   -43.1770   180.9420 C.3          1 NAD363   0.0000
     7 O4B         28.4050   -42.8050   182.1670 O.3          1 NAD363   0.0000
     8 C3B         29.6670   -41.8460   180.4300 C.3          1 NAD363   0.0000
     9 O3B         28.6050   -41.1620   179.7270 O.3          1 NAD363   0.0000
    10 C2B         29.9720   -41.0720   181.7120 C.3          1 NAD363   0.0000
    11 O2B         30.0000   -39.6790   181.4430 O.3          1 NAD363   0.0000
    12 C1B         28.6960   -41.4100   182.4060 C.3          1 NAD363   0.0000
    13 N9A         28.7930   -41.2660   183.8280 N.pl3        1 NAD363   0.0000
    14 C8A         29.8790   -41.3590   184.6150 C.2          1 NAD363   0.0000
    15 N7A         29.4900   -41.1380   185.8790 N.2          1 NAD363   0.0000
    16 C5A         28.1740   -40.9220   185.8200 C.ar         1 NAD363   0.0000
    17 C6A         27.3350   -40.6500   186.8950 C.ar         1 NAD363   0.0000
    18 N6A         27.7860   -40.5830   188.1560 N.pl3        1 NAD363   0.0000
    19 N1A         26.0300   -40.4560   186.5620 N.ar         1 NAD363   0.0000
    20 C2A         25.5730   -40.5250   185.3020 C.ar         1 NAD363   0.0000
    21 N3A         26.3870   -40.8070   184.2840 N.ar         1 NAD363   0.0000
    22 C4A         27.7020   -40.9990   184.5320 C.ar         1 NAD363   0.0000
    23 O3          31.3760   -46.9950   179.4080 O.3          1 NAD363   0.0000
    24 PN          30.5890   -48.2300   178.7040 P.3          1 NAD363   0.0000
    25 O1N         31.3650   -48.6680   177.4950 O.co2        1 NAD363   0.0000
    26 O2N         29.1600   -47.7010   178.6200 O.co2        1 NAD363  -1.0000
    27 O5D         30.6900   -49.3990   179.8440 O.3          1 NAD363   0.0000
    28 C5D         29.9680   -48.9740   181.0280 C.3          1 NAD363   0.0000
    29 C4D         29.7240   -50.1320   181.9820 C.3          1 NAD363   0.0000
    30 O4D         29.0350   -51.2430   181.3060 O.3          1 NAD363   0.0000
    31 C3D         30.9460   -50.7220   182.6200 C.3          1 NAD363   0.0000
    32 O3D         30.4820   -51.2460   183.8630 O.3          1 NAD363   0.0000
    33 C2D         31.3020   -51.7840   181.5940 C.3          1 NAD363   0.0000
    34 O2D         32.0230   -52.9390   182.0340 O.3          1 NAD363   0.0000
    35 C1D         29.9670   -52.3280   181.1230 C.3          1 NAD363   0.0000
    36 N1N         29.9710   -52.9400   179.7710 N.ar         1 NAD363   1.0000
    37 C2N         30.6060   -52.3780   178.6370 C.ar         1 NAD363   0.0000
    38 C3N         30.7880   -53.1550   177.4870 C.ar         1 NAD363   0.0000
    39 C7N         31.4650   -52.6910   176.1880 C.2          1 NAD363   0.0000
    40 O7N         32.2060   -53.4550   175.5740 O.2          1 NAD363   0.0000
    41 N7N         31.2210   -51.4590   175.7670 N.am         1 NAD363   0.0000
    42 C4N         30.3370   -54.4630   177.4970 C.ar         1 NAD363   0.0000
    43 C5N         29.7010   -55.0140   178.6090 C.ar         1 NAD363   0.0000
    44 C6N         29.5080   -54.2390   179.7460 C.ar         1 NAD363   0.0000
    45 H5B1        31.0415   -43.9425   181.2844 H            1 NAD363   0.0000
    46 H5B2        29.8924   -44.7365   182.1305 H            1 NAD363   0.0000
    47 H4B         28.4318   -43.5200   180.2817 H            1 NAD363   0.0000
    48 H3B         30.4792   -41.9730   179.8606 H            1 NAD363   0.0000
    49 H5          27.7239   -41.4149   180.1266 H            1 NAD363   0.0000
    50 H2B         30.7853   -41.4012   182.1917 H            1 NAD363   0.0000
    51 H7          29.1109   -39.3901   181.0880 H            1 NAD363   0.0000
    52 H1B         27.9534   -40.8402   182.0540 H            1 NAD363   0.0000
    53 H8A         30.8110   -41.5576   184.3117 H            1 NAD363   0.0000
    54 H6A1        27.1523   -40.3850   188.9038 H            1 NAD363   0.0000
    55 H6A2        28.7560   -40.7310   188.3486 H            1 NAD363   0.0000
    56 H2A         24.6028   -40.3617   185.1230 H            1 NAD363   0.0000
    57 H5D1        29.0868   -48.5912   180.7505 H            1 NAD363   0.0000
    58 H5D2        30.5025   -48.2726   181.4994 H            1 NAD363   0.0000
    59 H4D         29.1269   -49.8033   182.7137 H            1 NAD363   0.0000
    60 H3D         31.6756   -50.0487   182.7395 H            1 NAD363   0.0000
    61 H17         31.2464   -51.6621   184.3555 H            1 NAD363   0.0000
    62 H2D         31.7822   -51.3610   180.8256 H            1 NAD363   0.0000
    63 H19         33.0053   -52.7663   181.9618 H            1 NAD363   0.0000
    64 H1D         29.7041   -53.0474   181.7659 H            1 NAD363   0.0000
    65 H2N         30.9231   -51.4298   178.6576 H            1 NAD363   0.0000
    66 H7N1        31.6453   -51.1250   174.9254 H            1 NAD363   0.0000
    67 H7N2        30.6125   -50.8629   176.2908 H            1 NAD363   0.0000
    68 H4N         30.4709   -55.0293   176.6837 H            1 NAD363   0.0000
    69 H5N         29.3852   -55.9626   178.5882 H            1 NAD363   0.0000
    70 H6N         29.0365   -54.6206   180.5410 H            1 NAD363   0.0000
@<TRIPOS>BOND
     1    1    2      ar
     2    1    3      ar
     3    1    4       1
     4    1   23       1
     5    4    5       1
     6    5    6       1
     7    6    7       1
     8    6    8       1
     9    7   12       1
    10    8    9       1
    11    8   10       1
    12   10   11       1
    13   10   12       1
    14   12   13       1
    15   13   14       1
    16   13   22       1
    17   14   15       2
    18   15   16       1
    19   16   17      ar
    20   16   22      ar
    21   17   18       1
    22   17   19      ar
    23   19   20      ar
    24   20   21      ar
    25   21   22      ar
    26   23   24       1
    27   24   25      ar
    28   24   26      ar
    29   24   27       1
    30   27   28       1
    31   28   29       1
    32   29   30       1
    33   29   31       1
    34   30   35       1
    35   31   32       1
    36   31   33       1
    37   33   34       1
    38   33   35       1
    39   35   36       1
    40   36   37      ar
    41   36   44      ar
    42   37   38      ar
    43   38   39       1
    44   38   42      ar
    45   39   40       2
    46   39   41      am
    47   42   43      ar
    48   43   44      ar
    49   44   70       1
    50    5   45       1
    51    5   46       1
    52    6   47       1
    53    8   48       1
    54    9   49       1
    55   10   50       1
    56   11   51       1
    57   12   52       1
    58   14   53       1
    59   18   54       1
    60   18   55       1
    61   20   56       1
    62   43   69       1
    63   28   57       1
    64   28   58       1
    65   29   59       1
    66   31   60       1
    67   32   61       1
    68   33   62       1
    69   34   63       1
    70   35   64       1
    71   37   65       1
    72   41   66       1
    73   41   67       1
    74   42   68       1
@<TRIPOS>SUBSTRUCTURE
     1 NAD363      1 GROUP             4 D     NAD     0 **** NAD D 363
